# generated using pymatgen
data_TiOF2
_symmetry_space_group_name_H-M   'P 1'
_cell_length_a   15.47997215
_cell_length_b   15.40123794
_cell_length_c   15.40592618
_cell_angle_alpha   90.02094392
_cell_angle_beta   90.05304555
_cell_angle_gamma   89.96722518
_symmetry_Int_Tables_number   1
_chemical_formula_structural   TiOF2
_chemical_formula_sum   'Ti64 O64 F128'
_cell_volume   3672.9357516
_cell_formula_units_Z   64
loop_
 _symmetry_equiv_pos_site_id
 _symmetry_equiv_pos_as_xyz
  1  'x, y, z'
loop_
 _atom_site_type_symbol
 _atom_site_label
 _atom_site_symmetry_multiplicity
 _atom_site_fract_x
 _atom_site_fract_y
 _atom_site_fract_z
 _atom_site_occupancy
  Ti  Ti1  1  0.007087  0.001716  0.006914  1
  Ti  Ti2  1  0.007500  0.001590  0.507229  1
  Ti  Ti3  1  0.000561  0.492952  0.004515  1
  Ti  Ti4  1  0.001397  0.492920  0.505980  1
  Ti  Ti5  1  0.497995  0.006016  0.006125  1
  Ti  Ti6  1  0.497820  0.007147  0.505989  1
  Ti  Ti7  1  0.500209  0.506598  0.993838  1
  Ti  Ti8  1  0.492209  0.497314  0.493820  1
  Ti  Ti9  1  0.992995  0.000146  0.244155  1
  Ti  Ti10  1  0.999802  0.990791  0.744203  1
  Ti  Ti11  1  0.001577  0.500296  0.242761  1
  Ti  Ti12  1  0.007951  0.502038  0.742926  1
  Ti  Ti13  1  0.493556  0.999740  0.243604  1
  Ti  Ti14  1  0.500439  0.993701  0.743761  1
  Ti  Ti15  1  0.491583  0.498640  0.256397  1
  Ti  Ti16  1  0.498196  0.493835  0.755577  1
  Ti  Ti17  1  0.001251  0.256864  0.993618  1
  Ti  Ti18  1  0.991722  0.257331  0.502066  1
  Ti  Ti19  1  0.007360  0.748212  0.993320  1
  Ti  Ti20  1  0.007411  0.748633  0.493806  1
  Ti  Ti21  1  0.492567  0.243647  0.002177  1
  Ti  Ti22  1  0.501274  0.242753  0.492462  1
  Ti  Ti23  1  0.498111  0.744152  0.005445  1
  Ti  Ti24  1  0.507070  0.751644  0.504716  1
  Ti  Ti25  1  0.991707  0.248700  0.249766  1
  Ti  Ti26  1  0.997807  0.247701  0.758487  1
  Ti  Ti27  1  0.007084  0.750724  0.256445  1
  Ti  Ti28  1  0.992860  0.755979  0.755793  1
  Ti  Ti29  1  0.491771  0.251059  0.257610  1
  Ti  Ti30  1  0.507868  0.256368  0.748037  1
  Ti  Ti31  1  0.507145  0.750302  0.243432  1
  Ti  Ti32  1  0.502365  0.755929  0.743141  1
  Ti  Ti33  1  0.241501  0.993105  0.999590  1
  Ti  Ti34  1  0.242252  0.006176  0.499076  1
  Ti  Ti35  1  0.249233  0.493169  0.008859  1
  Ti  Ti36  1  0.257596  0.506876  0.497861  1
  Ti  Ti37  1  0.751577  0.994055  0.993644  1
  Ti  Ti38  1  0.751955  0.993797  0.494091  1
  Ti  Ti39  1  0.749794  0.493427  0.993485  1
  Ti  Ti40  1  0.747490  0.494260  0.494404  1
  Ti  Ti41  1  0.256370  0.006125  0.250463  1
  Ti  Ti42  1  0.250040  0.991737  0.751098  1
  Ti  Ti43  1  0.257538  0.505390  0.244383  1
  Ti  Ti44  1  0.242935  0.491947  0.753276  1
  Ti  Ti45  1  0.755808  0.002506  0.256826  1
  Ti  Ti46  1  0.749667  0.993963  0.756676  1
  Ti  Ti47  1  0.746693  0.493851  0.256293  1
  Ti  Ti48  1  0.751760  0.492872  0.755668  1
  Ti  Ti49  1  0.257552  0.256199  0.998376  1
  Ti  Ti50  1  0.248163  0.244331  0.507580  1
  Ti  Ti51  1  0.242085  0.755454  0.997973  1
  Ti  Ti52  1  0.245053  0.744969  0.504758  1
  Ti  Ti53  1  0.748577  0.255949  0.991413  1
  Ti  Ti54  1  0.757102  0.255873  0.501964  1
  Ti  Ti55  1  0.751646  0.756335  0.007220  1
  Ti  Ti56  1  0.744594  0.756131  0.498039  1
  Ti  Ti57  1  0.254358  0.244170  0.252017  1
  Ti  Ti58  1  0.253030  0.254960  0.743376  1
  Ti  Ti59  1  0.244793  0.743253  0.251154  1
  Ti  Ti60  1  0.249059  0.752253  0.740670  1
  Ti  Ti61  1  0.752542  0.257715  0.247533  1
  Ti  Ti62  1  0.742141  0.255130  0.756328  1
  Ti  Ti63  1  0.744065  0.748335  0.242525  1
  Ti  Ti64  1  0.758085  0.755447  0.751492  1
  O  O65  1  0.003369  0.002766  0.125093  1
  O  O66  1  0.001271  0.003443  0.625351  1
  O  O67  1  0.004424  0.497340  0.126499  1
  O  O68  1  0.001361  0.499237  0.624686  1
  O  O69  1  0.498795  0.995817  0.125067  1
  O  O70  1  0.496014  0.999953  0.624366  1
  O  O71  1  0.505492  0.494281  0.374870  1
  O  O72  1  0.500906  0.498375  0.875138  1
  O  O73  1  0.500444  0.755666  0.124734  1
  O  O74  1  0.500145  0.751941  0.624290  1
  O  O75  1  0.995745  0.249765  0.874161  1
  O  O76  1  0.998103  0.749962  0.374185  1
  O  O77  1  0.002527  0.748159  0.876507  1
  O  O78  1  0.501996  0.257113  0.374640  1
  O  O79  1  0.242529  0.499291  0.124425  1
  O  O80  1  0.749073  0.002178  0.374910  1
  O  O81  1  0.750212  0.004619  0.874956  1
  O  O82  1  0.745383  0.499374  0.374165  1
  O  O83  1  0.748495  0.500482  0.875699  1
  O  O84  1  0.250800  0.249490  0.625780  1
  O  O85  1  0.254110  0.750763  0.626350  1
  O  O86  1  0.748179  0.749356  0.124883  1
  O  O87  1  0.755568  0.246890  0.875631  1
  O  O88  1  0.124176  0.000170  0.994185  1
  O  O89  1  0.125586  0.997553  0.500915  1
  O  O90  1  0.124763  0.496996  0.755724  1
  O  O91  1  0.125388  0.748883  0.005619  1
  O  O92  1  0.124745  0.753133  0.499849  1
  O  O93  1  0.625673  0.750734  0.495223  1
  O  O94  1  0.125061  0.749707  0.247090  1
  O  O95  1  0.623827  0.248415  0.748765  1
  O  O96  1  0.625818  0.747213  0.253980  1
  O  O97  1  0.375050  0.493524  0.498378  1
  O  O98  1  0.374810  0.003035  0.251062  1
  O  O99  1  0.375656  0.492800  0.250672  1
  O  O100  1  0.875732  0.006325  0.249382  1
  O  O101  1  0.374334  0.252957  0.002217  1
  O  O102  1  0.875538  0.246473  0.498406  1
  O  O103  1  0.374103  0.251693  0.249001  1
  O  O104  1  0.877127  0.246810  0.250549  1
  O  O105  1  0.874597  0.750696  0.749840  1
  O  O106  1  0.500285  0.125505  0.001290  1
  O  O107  1  0.495947  0.125907  0.496401  1
  O  O108  1  0.499103  0.624870  0.002196  1
  O  O109  1  0.002436  0.374765  0.000337  1
  O  O110  1  0.999383  0.374608  0.497983  1
  O  O111  1  0.005248  0.876064  0.750214  1
  O  O112  1  0.496307  0.375117  0.745897  1
  O  O113  1  0.501489  0.876078  0.752559  1
  O  O114  1  0.252353  0.125194  0.496127  1
  O  O115  1  0.251588  0.624139  0.496033  1
  O  O116  1  0.245399  0.125584  0.254061  1
  O  O117  1  0.252122  0.625329  0.254575  1
  O  O118  1  0.242750  0.374223  0.994875  1
  O  O119  1  0.250625  0.875539  0.995749  1
  O  O120  1  0.753447  0.374780  0.004225  1
  O  O121  1  0.749594  0.374461  0.501195  1
  O  O122  1  0.754519  0.874970  0.998303  1
  O  O123  1  0.754276  0.875424  0.500788  1
  O  O124  1  0.253084  0.373410  0.755791  1
  O  O125  1  0.247665  0.877504  0.754046  1
  O  O126  1  0.749771  0.374059  0.247377  1
  O  O127  1  0.752571  0.375496  0.746421  1
  O  O128  1  0.746902  0.875424  0.750359  1
  F  F129  1  0.499499  0.498916  0.125352  1
  F  F130  1  0.499067  0.504876  0.624612  1
  F  F131  1  0.000442  0.999379  0.375309  1
  F  F132  1  0.996040  0.004521  0.874744  1
  F  F133  1  0.998338  0.501320  0.372818  1
  F  F134  1  0.994598  0.500108  0.875817  1
  F  F135  1  0.503264  0.002081  0.374458  1
  F  F136  1  0.499558  0.003017  0.874642  1
  F  F137  1  0.003358  0.248573  0.125355  1
  F  F138  1  0.003799  0.248305  0.627485  1
  F  F139  1  0.995041  0.749903  0.124927  1
  F  F140  1  0.001068  0.746794  0.625035  1
  F  F141  1  0.504517  0.249427  0.127159  1
  F  F142  1  0.493044  0.246006  0.623314  1
  F  F143  1  0.004537  0.248486  0.374450  1
  F  F144  1  0.499782  0.252897  0.875800  1
  F  F145  1  0.495559  0.745566  0.374093  1
  F  F146  1  0.500906  0.747903  0.874607  1
  F  F147  1  0.247493  0.001276  0.124632  1
  F  F148  1  0.253625  0.001687  0.626522  1
  F  F149  1  0.246549  0.498623  0.625710  1
  F  F150  1  0.748016  0.999917  0.125279  1
  F  F151  1  0.751416  0.002906  0.624903  1
  F  F152  1  0.754555  0.504723  0.126196  1
  F  F153  1  0.754966  0.504494  0.624061  1
  F  F154  1  0.249099  0.990526  0.374882  1
  F  F155  1  0.254266  0.010200  0.874400  1
  F  F156  1  0.244794  0.491776  0.373825  1
  F  F157  1  0.256838  0.506342  0.876861  1
  F  F158  1  0.242743  0.250164  0.124989  1
  F  F159  1  0.258767  0.749089  0.123884  1
  F  F160  1  0.749159  0.245367  0.124323  1
  F  F161  1  0.752208  0.245596  0.625501  1
  F  F162  1  0.746375  0.745752  0.625123  1
  F  F163  1  0.246471  0.256466  0.376779  1
  F  F164  1  0.245845  0.239826  0.873930  1
  F  F165  1  0.253420  0.760563  0.375220  1
  F  F166  1  0.246970  0.744739  0.873183  1
  F  F167  1  0.745702  0.245789  0.374354  1
  F  F168  1  0.759084  0.748301  0.373209  1
  F  F169  1  0.749494  0.743566  0.876492  1
  F  F170  1  0.123733  0.507987  0.989474  1
  F  F171  1  0.125272  0.500355  0.497038  1
  F  F172  1  0.624591  0.997766  0.999228  1
  F  F173  1  0.624353  0.999492  0.502863  1
  F  F174  1  0.625345  0.499088  0.007274  1
  F  F175  1  0.623966  0.503437  0.507446  1
  F  F176  1  0.124922  0.995359  0.253144  1
  F  F177  1  0.126232  0.007286  0.754658  1
  F  F178  1  0.123037  0.499957  0.256280  1
  F  F179  1  0.625069  0.998600  0.248819  1
  F  F180  1  0.624638  0.008864  0.748078  1
  F  F181  1  0.624221  0.506092  0.242169  1
  F  F182  1  0.624904  0.502555  0.744576  1
  F  F183  1  0.124032  0.243214  0.999169  1
  F  F184  1  0.122980  0.248098  0.500563  1
  F  F185  1  0.623860  0.251801  0.999092  1
  F  F186  1  0.625886  0.247776  0.504819  1
  F  F187  1  0.624887  0.752108  0.994895  1
  F  F188  1  0.121890  0.254606  0.250157  1
  F  F189  1  0.123248  0.250191  0.751105  1
  F  F190  1  0.125085  0.745350  0.747976  1
  F  F191  1  0.625692  0.248469  0.248432  1
  F  F192  1  0.626290  0.745646  0.752547  1
  F  F193  1  0.372457  0.002060  0.998640  1
  F  F194  1  0.373313  0.996808  0.495924  1
  F  F195  1  0.374816  0.494827  0.003532  1
  F  F196  1  0.876593  0.005419  0.000911  1
  F  F197  1  0.877111  0.008480  0.499223  1
  F  F198  1  0.876576  0.503891  0.002334  1
  F  F199  1  0.875204  0.503373  0.496748  1
  F  F200  1  0.373566  0.003723  0.752936  1
  F  F201  1  0.372822  0.505001  0.746682  1
  F  F202  1  0.875616  0.003161  0.749483  1
  F  F203  1  0.876481  0.497754  0.250547  1
  F  F204  1  0.877863  0.502733  0.751563  1
  F  F205  1  0.374351  0.259044  0.497076  1
  F  F206  1  0.373518  0.749922  0.994746  1
  F  F207  1  0.376361  0.752154  0.497218  1
  F  F208  1  0.876867  0.246827  0.008363  1
  F  F209  1  0.876257  0.744706  0.999491  1
  F  F210  1  0.875364  0.745308  0.505270  1
  F  F211  1  0.375607  0.243489  0.755356  1
  F  F212  1  0.376054  0.753428  0.250733  1
  F  F213  1  0.374840  0.748891  0.756496  1
  F  F214  1  0.876728  0.247065  0.742537  1
  F  F215  1  0.875301  0.750221  0.247349  1
  F  F216  1  0.998067  0.127862  0.000837  1
  F  F217  1  0.004468  0.127324  0.496356  1
  F  F218  1  0.998394  0.622019  0.002880  1
  F  F219  1  0.000896  0.622393  0.497672  1
  F  F220  1  0.497817  0.624139  0.497920  1
  F  F221  1  0.010279  0.126090  0.253717  1
  F  F222  1  0.001634  0.125149  0.750555  1
  F  F223  1  0.995985  0.623546  0.248445  1
  F  F224  1  0.001910  0.625445  0.750370  1
  F  F225  1  0.505903  0.125955  0.250378  1
  F  F226  1  0.496431  0.125443  0.752230  1
  F  F227  1  0.496072  0.624249  0.248330  1
  F  F228  1  0.498914  0.625440  0.749899  1
  F  F229  1  0.992809  0.875620  0.999957  1
  F  F230  1  0.991075  0.875847  0.501094  1
  F  F231  1  0.503338  0.374608  0.003718  1
  F  F232  1  0.507406  0.373084  0.509740  1
  F  F233  1  0.497568  0.875777  0.992781  1
  F  F234  1  0.499455  0.877228  0.491943  1
  F  F235  1  0.999231  0.374523  0.253742  1
  F  F236  1  0.996339  0.373247  0.749739  1
  F  F237  1  0.996616  0.875618  0.248657  1
  F  F238  1  0.510763  0.374491  0.241315  1
  F  F239  1  0.501483  0.875310  0.259830  1
  F  F240  1  0.250042  0.124916  0.004201  1
  F  F241  1  0.254034  0.624622  0.999741  1
  F  F242  1  0.748223  0.125396  0.005974  1
  F  F243  1  0.745552  0.125655  0.500973  1
  F  F244  1  0.748391  0.624600  0.001318  1
  F  F245  1  0.750949  0.624575  0.499092  1
  F  F246  1  0.247815  0.123829  0.748060  1
  F  F247  1  0.250246  0.623745  0.749599  1
  F  F248  1  0.745095  0.127362  0.247679  1
  F  F249  1  0.754210  0.125083  0.745321  1
  F  F250  1  0.756308  0.623029  0.250644  1
  F  F251  1  0.749476  0.624752  0.748334  1
  F  F252  1  0.243185  0.374472  0.501674  1
  F  F253  1  0.254324  0.877230  0.504261  1
  F  F254  1  0.243503  0.373802  0.248838  1
  F  F255  1  0.250706  0.876034  0.243932  1
  F  F256  1  0.751926  0.875314  0.250790  1

