# generated using pymatgen
data_TiOF2
_symmetry_space_group_name_H-M   'P 1'
_cell_length_a   15.25789612
_cell_length_b   15.25789612
_cell_length_c   15.25789612
_cell_angle_alpha   90.00000000
_cell_angle_beta   90.00000000
_cell_angle_gamma   90.00000000
_symmetry_Int_Tables_number   1
_chemical_formula_structural   TiOF2
_chemical_formula_sum   'Ti64 O64 F128'
_cell_volume   3552.09
_cell_formula_units_Z   64
loop_
 _symmetry_equiv_pos_site_id
 _symmetry_equiv_pos_as_xyz
  1  'x, y, z'
loop_
 _atom_site_type_symbol
 _atom_site_label
 _atom_site_symmetry_multiplicity
 _atom_site_fract_x
 _atom_site_fract_y
 _atom_site_fract_z
 _atom_site_occupancy
  Ti  Ti1  1  0.997450  0.999058  0.008306  1
  Ti  Ti2  1  0.992747  0.990503  0.499424  1
  Ti  Ti3  1  0.996898  0.505914  0.993762  1
  Ti  Ti4  1  0.006964  0.501822  0.492819  1
  Ti  Ti5  1  0.506532  0.008377  0.002476  1
  Ti  Ti6  1  0.491304  0.000636  0.497327  1
  Ti  Ti7  1  0.507608  0.509017  0.000172  1
  Ti  Ti8  1  0.501444  0.492012  0.508361  1
  Ti  Ti9  1  0.998752  0.008909  0.244948  1
  Ti  Ti10  1  0.990622  0.993694  0.750597  1
  Ti  Ti11  1  0.006907  0.497816  0.256919  1
  Ti  Ti12  1  0.992399  0.502638  0.755154  1
  Ti  Ti13  1  0.493689  0.991997  0.251264  1
  Ti  Ti14  1  0.490822  0.994680  0.751956  1
  Ti  Ti15  1  0.507776  0.494161  0.255800  1
  Ti  Ti16  1  0.502615  0.492528  0.745365  1
  Ti  Ti17  1  0.994750  0.254869  0.992463  1
  Ti  Ti18  1  0.993894  0.249987  0.492695  1
  Ti  Ti19  1  0.998442  0.742085  0.993457  1
  Ti  Ti20  1  0.002760  0.757531  0.495952  1
  Ti  Ti21  1  0.492587  0.245548  0.999867  1
  Ti  Ti22  1  0.494228  0.259117  0.495879  1
  Ti  Ti23  1  0.502292  0.745896  0.009392  1
  Ti  Ti24  1  0.493308  0.750141  0.508529  1
  Ti  Ti25  1  0.001187  0.243992  0.256551  1
  Ti  Ti26  1  0.006373  0.250856  0.753895  1
  Ti  Ti27  1  0.994853  0.753705  0.256032  1
  Ti  Ti28  1  0.997878  0.759046  0.755307  1
  Ti  Ti29  1  0.492040  0.255962  0.252941  1
  Ti  Ti30  1  0.504136  0.257315  0.748949  1
  Ti  Ti31  1  0.498179  0.756425  0.246095  1
  Ti  Ti32  1  0.500968  0.757202  0.746497  1
  Ti  Ti33  1  0.254764  0.007520  0.004181  1
  Ti  Ti34  1  0.252963  0.007067  0.493542  1
  Ti  Ti35  1  0.255094  0.505136  0.993363  1
  Ti  Ti36  1  0.243672  0.498766  0.491800  1
  Ti  Ti37  1  0.739985  0.997937  0.995883  1
  Ti  Ti38  1  0.752711  0.995614  0.493253  1
  Ti  Ti39  1  0.744809  0.508966  0.000892  1
  Ti  Ti40  1  0.755359  0.505246  0.493172  1
  Ti  Ti41  1  0.259066  0.002755  0.241920  1
  Ti  Ti42  1  0.252902  0.006959  0.752049  1
  Ti  Ti43  1  0.245786  0.493417  0.254867  1
  Ti  Ti44  1  0.248459  0.505001  0.756104  1
  Ti  Ti45  1  0.747696  0.006157  0.256431  1
  Ti  Ti46  1  0.753473  0.998233  0.757335  1
  Ti  Ti47  1  0.746409  0.496820  0.260253  1
  Ti  Ti48  1  0.756771  0.509053  0.750689  1
  Ti  Ti49  1  0.256783  0.244722  0.996212  1
  Ti  Ti50  1  0.256702  0.243929  0.494961  1
  Ti  Ti51  1  0.254287  0.744407  0.992450  1
  Ti  Ti52  1  0.258224  0.754122  0.493900  1
  Ti  Ti53  1  0.755839  0.254126  0.993944  1
  Ti  Ti54  1  0.754210  0.253537  0.493673  1
  Ti  Ti55  1  0.752448  0.740036  0.006678  1
  Ti  Ti56  1  0.748634  0.739958  0.507219  1
  Ti  Ti57  1  0.255875  0.258465  0.248436  1
  Ti  Ti58  1  0.241533  0.245205  0.747670  1
  Ti  Ti59  1  0.258914  0.750916  0.254090  1
  Ti  Ti60  1  0.250059  0.743829  0.756073  1
  Ti  Ti61  1  0.747476  0.242731  0.256573  1
  Ti  Ti62  1  0.741947  0.253668  0.754576  1
  Ti  Ti63  1  0.756414  0.750875  0.244451  1
  Ti  Ti64  1  0.747548  0.740038  0.747286  1
  O  O65  1  0.984432  0.011365  0.123083  1
  O  O66  1  0.517315  0.490267  0.626144  1
  O  O67  1  0.984838  0.486893  0.376180  1
  O  O68  1  0.992096  0.487328  0.874915  1
  O  O69  1  0.518871  0.762828  0.124885  1
  O  O70  1  0.516053  0.759396  0.626848  1
  O  O71  1  0.013387  0.263629  0.373622  1
  O  O72  1  0.009538  0.264398  0.873356  1
  O  O73  1  0.996219  0.761568  0.376665  1
  O  O74  1  0.990371  0.762638  0.875097  1
  O  O75  1  0.267335  0.015419  0.123231  1
  O  O76  1  0.264705  0.487205  0.375873  1
  O  O77  1  0.258914  0.485620  0.874680  1
  O  O78  1  0.733420  0.989749  0.374598  1
  O  O79  1  0.734591  0.991730  0.876219  1
  O  O80  1  0.766398  0.479981  0.377501  1
  O  O81  1  0.739276  0.734458  0.125191  1
  O  O82  1  0.736724  0.737343  0.627892  1
  O  O83  1  0.254460  0.761630  0.375442  1
  O  O84  1  0.261477  0.763930  0.873977  1
  O  O85  1  0.735184  0.261811  0.374695  1
  O  O86  1  0.740307  0.260357  0.874623  1
  O  O87  1  0.125083  0.516208  0.488484  1
  O  O88  1  0.624441  0.012977  0.020092  1
  O  O89  1  0.627055  0.516388  0.987946  1
  O  O90  1  0.124558  0.507885  0.260344  1
  O  O91  1  0.627179  0.508395  0.264667  1
  O  O92  1  0.124469  0.264780  0.733104  1
  O  O93  1  0.622846  0.263711  0.736842  1
  O  O94  1  0.375772  0.986305  0.483588  1
  O  O95  1  0.873245  0.986054  0.490495  1
  O  O96  1  0.374178  0.993421  0.268683  1
  O  O97  1  0.373108  0.011912  0.762112  1
  O  O98  1  0.873279  0.013349  0.761550  1
  O  O99  1  0.874690  0.520277  0.739828  1
  O  O100  1  0.374756  0.264789  0.987117  1
  O  O101  1  0.374384  0.262120  0.479005  1
  O  O102  1  0.376343  0.769720  0.511589  1
  O  O103  1  0.875552  0.265498  0.994393  1
  O  O104  1  0.874180  0.262413  0.490088  1
  O  O105  1  0.374087  0.250978  0.267289  1
  O  O106  1  0.376159  0.761579  0.240419  1
  O  O107  1  0.875722  0.764385  0.241308  1
  O  O108  1  0.980867  0.625077  0.991662  1
  O  O109  1  0.484797  0.125403  0.014527  1
  O  O110  1  0.486093  0.625454  0.013435  1
  O  O111  1  0.984240  0.123953  0.264318  1
  O  O112  1  0.015498  0.874944  0.517113  1
  O  O113  1  0.515468  0.374935  0.483677  1
  O  O114  1  0.982287  0.875228  0.733865  1
  O  O115  1  0.507190  0.373460  0.269164  1
  O  O116  1  0.484786  0.375229  0.761956  1
  O  O117  1  0.513923  0.877744  0.266735  1
  O  O118  1  0.487228  0.875392  0.762196  1
  O  O119  1  0.260899  0.124805  0.979645  1
  O  O120  1  0.259604  0.124318  0.480427  1
  O  O121  1  0.268663  0.625514  0.990725  1
  O  O122  1  0.773498  0.624345  0.985584  1
  O  O123  1  0.769208  0.623759  0.488949  1
  O  O124  1  0.234587  0.125558  0.760535  1
  O  O125  1  0.234038  0.624830  0.759505  1
  O  O126  1  0.764404  0.124159  0.258868  1
  O  O127  1  0.731202  0.624016  0.770366  1
  O  O128  1  0.243890  0.373040  0.232427  1
  F  F129  1  0.991241  0.020931  0.624323  1
  F  F130  1  0.006786  0.510300  0.124616  1
  F  F131  1  0.010989  0.512987  0.625881  1
  F  F132  1  0.478385  0.980836  0.124066  1
  F  F133  1  0.486803  0.985359  0.622595  1
  F  F134  1  0.513675  0.484519  0.126518  1
  F  F135  1  0.014118  0.984077  0.373091  1
  F  F136  1  0.013033  0.986817  0.876599  1
  F  F137  1  0.518745  0.022614  0.375267  1
  F  F138  1  0.517461  0.017756  0.874968  1
  F  F139  1  0.484213  0.516337  0.379017  1
  F  F140  1  0.485263  0.511250  0.875118  1
  F  F141  1  0.992750  0.235841  0.124053  1
  F  F142  1  0.989575  0.233711  0.623167  1
  F  F143  1  0.010336  0.743055  0.124055  1
  F  F144  1  0.006511  0.733276  0.626564  1
  F  F145  1  0.488685  0.268850  0.125698  1
  F  F146  1  0.479986  0.261424  0.622595  1
  F  F147  1  0.519152  0.224864  0.375013  1
  F  F148  1  0.513576  0.232819  0.874471  1
  F  F149  1  0.492613  0.737457  0.377819  1
  F  F150  1  0.484839  0.740142  0.876272  1
  F  F151  1  0.259219  0.011593  0.621717  1
  F  F152  1  0.244581  0.511650  0.123766  1
  F  F153  1  0.243414  0.507136  0.624566  1
  F  F154  1  0.769703  0.003164  0.124759  1
  F  F155  1  0.755271  0.005923  0.625059  1
  F  F156  1  0.742588  0.516508  0.127439  1
  F  F157  1  0.731787  0.511765  0.625927  1
  F  F158  1  0.229631  0.982857  0.371887  1
  F  F159  1  0.232933  0.982453  0.874995  1
  F  F160  1  0.765334  0.478990  0.876540  1
  F  F161  1  0.262851  0.228707  0.123992  1
  F  F162  1  0.268431  0.236439  0.621791  1
  F  F163  1  0.240454  0.743162  0.123537  1
  F  F164  1  0.240446  0.743212  0.624669  1
  F  F165  1  0.756675  0.240806  0.125006  1
  F  F166  1  0.758503  0.240028  0.624387  1
  F  F167  1  0.225557  0.266977  0.373511  1
  F  F168  1  0.234413  0.270781  0.873211  1
  F  F169  1  0.759045  0.764615  0.377574  1
  F  F170  1  0.767766  0.765133  0.876241  1
  F  F171  1  0.123930  0.013661  0.010577  1
  F  F172  1  0.123949  0.014240  0.508393  1
  F  F173  1  0.125581  0.514461  0.993730  1
  F  F174  1  0.621513  0.011929  0.513419  1
  F  F175  1  0.625933  0.517237  0.484856  1
  F  F176  1  0.124589  0.013582  0.236013  1
  F  F177  1  0.122799  0.986913  0.737174  1
  F  F178  1  0.123603  0.480012  0.753582  1
  F  F179  1  0.623789  0.013793  0.228766  1
  F  F180  1  0.622863  0.989481  0.736504  1
  F  F181  1  0.627250  0.481848  0.769361  1
  F  F182  1  0.125290  0.237078  0.010021  1
  F  F183  1  0.125567  0.238409  0.513127  1
  F  F184  1  0.125735  0.736328  0.990342  1
  F  F185  1  0.126568  0.729821  0.497717  1
  F  F186  1  0.624501  0.238571  0.011149  1
  F  F187  1  0.622311  0.236419  0.514555  1
  F  F188  1  0.627466  0.735759  0.979013  1
  F  F189  1  0.624006  0.732563  0.486746  1
  F  F190  1  0.125676  0.235705  0.233818  1
  F  F191  1  0.124994  0.739083  0.253384  1
  F  F192  1  0.124582  0.769328  0.755258  1
  F  F193  1  0.622764  0.237993  0.234968  1
  F  F194  1  0.628225  0.736196  0.266369  1
  F  F195  1  0.626029  0.767821  0.773356  1
  F  F196  1  0.377016  0.982923  0.979046  1
  F  F197  1  0.378494  0.480109  0.012170  1
  F  F198  1  0.375561  0.484194  0.516232  1
  F  F199  1  0.875139  0.983423  0.985129  1
  F  F200  1  0.874332  0.478272  0.013313  1
  F  F201  1  0.876112  0.482062  0.522803  1
  F  F202  1  0.378107  0.495889  0.237306  1
  F  F203  1  0.376502  0.517839  0.737738  1
  F  F204  1  0.875094  0.978843  0.264126  1
  F  F205  1  0.874837  0.488923  0.234979  1
  F  F206  1  0.376698  0.772295  0.015184  1
  F  F207  1  0.876476  0.773430  0.015743  1
  F  F208  1  0.874309  0.767588  0.513473  1
  F  F209  1  0.373816  0.236981  0.763465  1
  F  F210  1  0.375874  0.732322  0.735273  1
  F  F211  1  0.874502  0.266986  0.255879  1
  F  F212  1  0.874130  0.237278  0.754730  1
  F  F213  1  0.874893  0.727090  0.740623  1
  F  F214  1  0.988225  0.123633  0.983339  1
  F  F215  1  0.991196  0.122965  0.482409  1
  F  F216  1  0.978845  0.626202  0.492956  1
  F  F217  1  0.486249  0.124881  0.515301  1
  F  F218  1  0.484547  0.623440  0.511842  1
  F  F219  1  0.014654  0.123748  0.762850  1
  F  F220  1  0.986909  0.625418  0.257082  1
  F  F221  1  0.021088  0.626587  0.762190  1
  F  F222  1  0.494037  0.124384  0.232108  1
  F  F223  1  0.508256  0.125032  0.733299  1
  F  F224  1  0.494555  0.624200  0.239892  1
  F  F225  1  0.518089  0.624987  0.748055  1
  F  F226  1  0.018301  0.376910  0.016418  1
  F  F227  1  0.014820  0.374783  0.517568  1
  F  F228  1  0.016984  0.875300  0.011778  1
  F  F229  1  0.515476  0.374816  0.987109  1
  F  F230  1  0.514127  0.876735  0.984645  1
  F  F231  1  0.519165  0.876729  0.483948  1
  F  F232  1  0.010219  0.372281  0.231859  1
  F  F233  1  0.981461  0.375800  0.731599  1
  F  F234  1  0.016447  0.877892  0.237091  1
  F  F235  1  0.270330  0.625427  0.494784  1
  F  F236  1  0.765199  0.124399  0.994160  1
  F  F237  1  0.756803  0.124522  0.492552  1
  F  F238  1  0.250034  0.125569  0.270429  1
  F  F239  1  0.260938  0.624699  0.256669  1
  F  F240  1  0.734056  0.125153  0.754769  1
  F  F241  1  0.766279  0.624207  0.268342  1
  F  F242  1  0.235832  0.373881  0.015732  1
  F  F243  1  0.235352  0.372539  0.513837  1
  F  F244  1  0.236448  0.876852  0.011212  1
  F  F245  1  0.230604  0.877622  0.511861  1
  F  F246  1  0.734845  0.377352  0.016363  1
  F  F247  1  0.731837  0.376693  0.518494  1
  F  F248  1  0.735919  0.872192  0.010966  1
  F  F249  1  0.731113  0.872060  0.512091  1
  F  F250  1  0.266932  0.374475  0.734447  1
  F  F251  1  0.234133  0.877198  0.235196  1
  F  F252  1  0.261048  0.875471  0.735009  1
  F  F253  1  0.739544  0.373092  0.231880  1
  F  F254  1  0.765037  0.377461  0.735301  1
  F  F255  1  0.733134  0.875741  0.237419  1
  F  F256  1  0.763610  0.872372  0.740986  1

