# generated using pymatgen
data_TiOF2
_symmetry_space_group_name_H-M   'P 1'
_cell_length_a   15.42606482
_cell_length_b   15.42606482
_cell_length_c   15.42606482
_cell_angle_alpha   90.00000000
_cell_angle_beta   90.00000000
_cell_angle_gamma   90.00000000
_symmetry_Int_Tables_number   1
_chemical_formula_structural   TiOF2
_chemical_formula_sum   'Ti64 O64 F128'
_cell_volume   3670.84
_cell_formula_units_Z   64
loop_
 _symmetry_equiv_pos_site_id
 _symmetry_equiv_pos_as_xyz
  1  'x, y, z'
loop_
 _atom_site_type_symbol
 _atom_site_label
 _atom_site_symmetry_multiplicity
 _atom_site_fract_x
 _atom_site_fract_y
 _atom_site_fract_z
 _atom_site_occupancy
  Ti  Ti1  1  0.999510  0.007888  0.006759  1
  Ti  Ti2  1  0.992968  0.991898  0.498904  1
  Ti  Ti3  1  0.993255  0.498477  0.993444  1
  Ti  Ti4  1  0.994460  0.493023  0.501581  1
  Ti  Ti5  1  0.498852  0.991643  0.005930  1
  Ti  Ti6  1  0.501944  0.992857  0.505595  1
  Ti  Ti7  1  0.493902  0.501918  0.991657  1
  Ti  Ti8  1  0.494300  0.493575  0.500845  1
  Ti  Ti9  1  0.999702  0.006769  0.242855  1
  Ti  Ti10  1  0.991955  0.007206  0.751853  1
  Ti  Ti11  1  0.993990  0.506638  0.248129  1
  Ti  Ti12  1  0.007025  0.498826  0.758189  1
  Ti  Ti13  1  0.499409  0.995023  0.244019  1
  Ti  Ti14  1  0.501610  0.006677  0.743543  1
  Ti  Ti15  1  0.494029  0.496157  0.247803  1
  Ti  Ti16  1  0.497895  0.506676  0.756593  1
  Ti  Ti17  1  0.999520  0.243000  0.005826  1
  Ti  Ti18  1  0.998917  0.255589  0.506493  1
  Ti  Ti19  1  0.007441  0.751855  0.993720  1
  Ti  Ti20  1  0.005517  0.754539  0.494534  1
  Ti  Ti21  1  0.500386  0.247573  0.008706  1
  Ti  Ti22  1  0.507102  0.256074  0.499371  1
  Ti  Ti23  1  0.497912  0.756858  0.007954  1
  Ti  Ti24  1  0.506234  0.755864  0.497614  1
  Ti  Ti25  1  0.999632  0.244364  0.244336  1
  Ti  Ti26  1  0.998132  0.241550  0.744426  1
  Ti  Ti27  1  0.000095  0.743969  0.256251  1
  Ti  Ti28  1  0.992753  0.751681  0.755447  1
  Ti  Ti29  1  0.499895  0.257177  0.245031  1
  Ti  Ti30  1  0.507069  0.243820  0.752186  1
  Ti  Ti31  1  0.499922  0.757136  0.243322  1
  Ti  Ti32  1  0.493765  0.743992  0.752058  1
  Ti  Ti33  1  0.250811  0.993864  0.007238  1
  Ti  Ti34  1  0.249159  0.002367  0.508028  1
  Ti  Ti35  1  0.256610  0.494380  0.000271  1
  Ti  Ti36  1  0.256958  0.492952  0.499475  1
  Ti  Ti37  1  0.750224  0.005767  0.007097  1
  Ti  Ti38  1  0.758208  0.007122  0.498293  1
  Ti  Ti39  1  0.755951  0.505836  0.998778  1
  Ti  Ti40  1  0.757320  0.498847  0.506545  1
  Ti  Ti41  1  0.250575  0.993679  0.244618  1
  Ti  Ti42  1  0.247951  0.992736  0.746559  1
  Ti  Ti43  1  0.255975  0.494100  0.250087  1
  Ti  Ti44  1  0.242005  0.492891  0.749876  1
  Ti  Ti45  1  0.750592  0.005491  0.242804  1
  Ti  Ti46  1  0.756440  0.991617  0.751118  1
  Ti  Ti47  1  0.756553  0.505240  0.251461  1
  Ti  Ti48  1  0.751581  0.493968  0.741654  1
  Ti  Ti49  1  0.249265  0.256222  0.005979  1
  Ti  Ti50  1  0.251281  0.257583  0.506241  1
  Ti  Ti51  1  0.242290  0.756050  0.002695  1
  Ti  Ti52  1  0.242649  0.747627  0.493481  1
  Ti  Ti53  1  0.750735  0.244093  0.007321  1
  Ti  Ti54  1  0.742290  0.241997  0.498080  1
  Ti  Ti55  1  0.750980  0.743553  0.006861  1
  Ti  Ti56  1  0.743492  0.750757  0.507130  1
  Ti  Ti57  1  0.250066  0.255863  0.244211  1
  Ti  Ti58  1  0.251703  0.255786  0.744055  1
  Ti  Ti59  1  0.250203  0.755796  0.257911  1
  Ti  Ti60  1  0.256140  0.755325  0.748826  1
  Ti  Ti61  1  0.750415  0.243883  0.242825  1
  Ti  Ti62  1  0.742661  0.256586  0.751149  1
  Ti  Ti63  1  0.750098  0.743501  0.244393  1
  Ti  Ti64  1  0.754894  0.754494  0.744744  1
  O  O65  1  0.999171  0.000947  0.124174  1
  O  O66  1  0.499337  0.004750  0.124604  1
  O  O67  1  0.499700  0.999355  0.625219  1
  O  O68  1  0.999537  0.503358  0.875768  1
  O  O69  1  0.497579  0.495799  0.875069  1
  O  O70  1  0.000093  0.250385  0.124406  1
  O  O71  1  0.000125  0.246376  0.625754  1
  O  O72  1  0.501741  0.244283  0.123326  1
  O  O73  1  0.502864  0.747869  0.125424  1
  O  O74  1  0.002421  0.748070  0.372801  1
  O  O75  1  0.003671  0.748186  0.876412  1
  O  O76  1  0.250501  0.004143  0.125514  1
  O  O77  1  0.250458  0.002921  0.623630  1
  O  O78  1  0.751215  0.996502  0.124929  1
  O  O79  1  0.750242  0.504603  0.624318  1
  O  O80  1  0.250082  0.247959  0.125013  1
  O  O81  1  0.250036  0.247961  0.624887  1
  O  O82  1  0.747849  0.253226  0.124957  1
  O  O83  1  0.745416  0.754596  0.125615  1
  O  O84  1  0.747593  0.745098  0.624035  1
  O  O85  1  0.249909  0.748147  0.373864  1
  O  O86  1  0.124700  0.497441  0.749284  1
  O  O87  1  0.125955  0.752236  0.006982  1
  O  O88  1  0.127002  0.750400  0.501889  1
  O  O89  1  0.624597  0.250019  0.502611  1
  O  O90  1  0.623694  0.750722  0.494577  1
  O  O91  1  0.624617  0.252283  0.748174  1
  O  O92  1  0.375262  0.501209  0.004562  1
  O  O93  1  0.374864  0.500831  0.496924  1
  O  O94  1  0.874643  0.000550  0.503118  1
  O  O95  1  0.874810  0.495251  0.002931  1
  O  O96  1  0.875440  0.498026  0.496270  1
  O  O97  1  0.375424  0.504058  0.249094  1
  O  O98  1  0.875778  0.998340  0.747038  1
  O  O99  1  0.874883  0.494688  0.249934  1
  O  O100  1  0.374888  0.751621  0.752484  1
  O  O101  1  0.876106  0.751660  0.751880  1
  O  O102  1  0.993734  0.125168  0.993563  1
  O  O103  1  0.994134  0.125132  0.251542  1
  O  O104  1  0.001085  0.124920  0.758674  1
  O  O105  1  0.998110  0.624696  0.243955  1
  O  O106  1  0.498703  0.125973  0.753821  1
  O  O107  1  0.500242  0.624237  0.749656  1
  O  O108  1  0.004449  0.374067  0.500362  1
  O  O109  1  0.000664  0.875985  0.501823  1
  O  O110  1  0.498452  0.374370  0.496911  1
  O  O111  1  0.492305  0.875230  0.000358  1
  O  O112  1  0.496494  0.875617  0.494712  1
  O  O113  1  0.497837  0.373568  0.248300  1
  O  O114  1  0.495124  0.876029  0.251901  1
  O  O115  1  0.753652  0.125326  0.001109  1
  O  O116  1  0.749603  0.125205  0.494375  1
  O  O117  1  0.749728  0.624209  0.003269  1
  O  O118  1  0.755460  0.124927  0.251748  1
  O  O119  1  0.751546  0.624749  0.249284  1
  O  O120  1  0.249955  0.374803  0.998611  1
  O  O121  1  0.248199  0.374937  0.497582  1
  O  O122  1  0.256209  0.875740  0.000434  1
  O  O123  1  0.253009  0.374747  0.251573  1
  O  O124  1  0.252199  0.374960  0.752033  1
  O  O125  1  0.255258  0.875520  0.248783  1
  O  O126  1  0.246775  0.875680  0.751033  1
  O  O127  1  0.754155  0.374873  0.748632  1
  O  O128  1  0.746565  0.876069  0.749614  1
  F  F129  1  0.008079  0.005866  0.625322  1
  F  F130  1  0.005988  0.491775  0.123617  1
  F  F131  1  0.997245  0.498722  0.627435  1
  F  F132  1  0.505080  0.502822  0.123441  1
  F  F133  1  0.501461  0.497182  0.625943  1
  F  F134  1  0.001091  0.998312  0.373129  1
  F  F135  1  0.000999  0.990727  0.876588  1
  F  F136  1  0.006835  0.502460  0.374774  1
  F  F137  1  0.501309  0.005778  0.373986  1
  F  F138  1  0.500820  0.999173  0.876240  1
  F  F139  1  0.504341  0.504526  0.373902  1
  F  F140  1  0.994620  0.756169  0.124430  1
  F  F141  1  0.999664  0.748623  0.625711  1
  F  F142  1  0.492363  0.249381  0.625291  1
  F  F143  1  0.500960  0.753870  0.625525  1
  F  F144  1  0.998455  0.250196  0.374347  1
  F  F145  1  0.998654  0.257510  0.875952  1
  F  F146  1  0.498704  0.246164  0.373186  1
  F  F147  1  0.499368  0.258184  0.878354  1
  F  F148  1  0.492254  0.742305  0.372492  1
  F  F149  1  0.500413  0.748495  0.877881  1
  F  F150  1  0.243691  0.503089  0.125300  1
  F  F151  1  0.251723  0.502339  0.624748  1
  F  F152  1  0.742403  0.003399  0.624364  1
  F  F153  1  0.744428  0.490921  0.125212  1
  F  F154  1  0.248936  0.998507  0.376076  1
  F  F155  1  0.249210  0.002546  0.875660  1
  F  F156  1  0.244224  0.508034  0.374728  1
  F  F157  1  0.252673  0.507174  0.874896  1
  F  F158  1  0.749471  0.995385  0.373380  1
  F  F159  1  0.749326  0.002570  0.876626  1
  F  F160  1  0.744354  0.494622  0.375732  1
  F  F161  1  0.748458  0.499383  0.873783  1
  F  F162  1  0.258867  0.746034  0.126291  1
  F  F163  1  0.253612  0.750568  0.623813  1
  F  F164  1  0.756679  0.247341  0.624403  1
  F  F165  1  0.252027  0.248433  0.374532  1
  F  F166  1  0.251413  0.247493  0.875809  1
  F  F167  1  0.247416  0.744912  0.875879  1
  F  F168  1  0.750397  0.255632  0.373348  1
  F  F169  1  0.750155  0.248883  0.876605  1
  F  F170  1  0.754679  0.753599  0.373814  1
  F  F171  1  0.748918  0.749341  0.877252  1
  F  F172  1  0.124657  0.000702  0.996505  1
  F  F173  1  0.125638  0.002399  0.496824  1
  F  F174  1  0.125804  0.503176  0.998784  1
  F  F175  1  0.126090  0.503898  0.503831  1
  F  F176  1  0.624646  -0.000038  0.997319  1
  F  F177  1  0.626512  0.998916  0.496510  1
  F  F178  1  0.624022  0.496435  0.999738  1
  F  F179  1  0.624952  0.500235  0.499474  1
  F  F180  1  0.124911  0.001480  0.253462  1
  F  F181  1  0.124139  0.002958  0.752956  1
  F  F182  1  0.125843  0.498868  0.249848  1
  F  F183  1  0.625163  0.001566  0.252608  1
  F  F184  1  0.626210  0.004438  0.753653  1
  F  F185  1  0.624244  0.498843  0.249539  1
  F  F186  1  0.624273  0.495396  0.750146  1
  F  F187  1  0.124523  0.245960  0.995151  1
  F  F188  1  0.125729  0.243043  0.494944  1
  F  F189  1  0.624245  0.249830  0.994217  1
  F  F190  1  0.623734  0.754070  0.995752  1
  F  F191  1  0.124918  0.247464  0.254474  1
  F  F192  1  0.124795  0.252768  0.755378  1
  F  F193  1  0.125969  0.752674  0.238694  1
  F  F194  1  0.126529  0.745809  0.747120  1
  F  F195  1  0.624812  0.246950  0.255239  1
  F  F196  1  0.624105  0.752622  0.259813  1
  F  F197  1  0.623149  0.749469  0.753580  1
  F  F198  1  0.375429  0.012490  0.995349  1
  F  F199  1  0.374132  0.005144  0.494791  1
  F  F200  1  0.874801  0.993260  0.994468  1
  F  F201  1  0.375115  0.010411  0.255371  1
  F  F202  1  0.374603  0.998444  0.754683  1
  F  F203  1  0.372917  0.501611  0.746417  1
  F  F204  1  0.875108  0.990792  0.254912  1
  F  F205  1  0.876376  0.504965  0.750593  1
  F  F206  1  0.376537  0.245249  0.996943  1
  F  F207  1  0.375730  0.244717  0.496885  1
  F  F208  1  0.374653  0.740968  0.997392  1
  F  F209  1  0.374683  0.746607  0.502179  1
  F  F210  1  0.874783  0.260654  0.997129  1
  F  F211  1  0.873522  0.251616  0.497000  1
  F  F212  1  0.875778  0.753471  0.000693  1
  F  F213  1  0.874280  0.748512  0.499217  1
  F  F214  1  0.375716  0.240666  0.251713  1
  F  F215  1  0.376117  0.249285  0.754413  1
  F  F216  1  0.375594  0.740243  0.248182  1
  F  F217  1  0.874564  0.260207  0.252419  1
  F  F218  1  0.873421  0.247077  0.753783  1
  F  F219  1  0.874687  0.759991  0.248192  1
  F  F220  1  0.000482  0.124748  0.495228  1
  F  F221  1  0.997782  0.625011  0.009325  1
  F  F222  1  0.000115  0.623341  0.503115  1
  F  F223  1  0.504652  0.125340  0.990952  1
  F  F224  1  0.499731  0.125222  0.499709  1
  F  F225  1  0.505934  0.626311  0.997654  1
  F  F226  1  0.500646  0.624255  0.504038  1
  F  F227  1  0.000991  0.624438  0.745435  1
  F  F228  1  0.503886  0.125948  0.252217  1
  F  F229  1  0.506040  0.625032  0.249340  1
  F  F230  1  0.007798  0.373463  0.998356  1
  F  F231  1  0.999854  0.877544  0.999637  1
  F  F232  1  0.499692  0.373019  0.006013  1
  F  F233  1  0.005705  0.373775  0.253453  1
  F  F234  1  0.994282  0.374047  0.750281  1
  F  F235  1  0.004534  0.876887  0.250050  1
  F  F236  1  0.008642  0.876838  0.745974  1
  F  F237  1  0.494882  0.374756  0.746355  1
  F  F238  1  0.503144  0.875814  0.754380  1
  F  F239  1  0.247708  0.125674  0.996326  1
  F  F240  1  0.249979  0.125595  0.493937  1
  F  F241  1  0.248979  0.624927  0.001366  1
  F  F242  1  0.249894  0.623128  0.503724  1
  F  F243  1  0.749577  0.624179  0.489472  1
  F  F244  1  0.246634  0.125086  0.255558  1
  F  F245  1  0.250162  0.125003  0.753211  1
  F  F246  1  0.244923  0.625102  0.247226  1
  F  F247  1  0.250481  0.624312  0.747780  1
  F  F248  1  0.750445  0.125848  0.750126  1
  F  F249  1  0.746541  0.623244  0.756448  1
  F  F250  1  0.254541  0.876640  0.500060  1
  F  F251  1  0.744595  0.373354  0.994937  1
  F  F252  1  0.749623  0.373070  0.502207  1
  F  F253  1  0.748142  0.876526  0.994459  1
  F  F254  1  0.749315  0.877039  0.501638  1
  F  F255  1  0.743536  0.373357  0.252366  1
  F  F256  1  0.745188  0.876499  0.253653  1

