# generated using pymatgen
data_TiOF2
_symmetry_space_group_name_H-M   'P 1'
_cell_length_a   15.42633096
_cell_length_b   15.42633096
_cell_length_c   15.42633096
_cell_angle_alpha   90.00000000
_cell_angle_beta   90.00000000
_cell_angle_gamma   90.00000000
_symmetry_Int_Tables_number   1
_chemical_formula_structural   TiOF2
_chemical_formula_sum   'Ti64 O64 F128'
_cell_volume   3671.03
_cell_formula_units_Z   64
loop_
 _symmetry_equiv_pos_site_id
 _symmetry_equiv_pos_as_xyz
  1  'x, y, z'
loop_
 _atom_site_type_symbol
 _atom_site_label
 _atom_site_symmetry_multiplicity
 _atom_site_fract_x
 _atom_site_fract_y
 _atom_site_fract_z
 _atom_site_occupancy
  Ti  Ti1  1  0.994974  0.995449  0.994636  1
  Ti  Ti2  1  0.000071  0.991744  0.493460  1
  Ti  Ti3  1  0.005640  0.495054  0.997973  1
  Ti  Ti4  1  0.993722  0.502187  0.507040  1
  Ti  Ti5  1  0.493976  0.994656  0.999270  1
  Ti  Ti6  1  0.500300  0.008135  0.500292  1
  Ti  Ti7  1  0.504217  0.495627  0.995762  1
  Ti  Ti8  1  0.491998  0.499345  0.494929  1
  Ti  Ti9  1  0.006729  0.002515  0.256290  1
  Ti  Ti10  1  0.001031  0.007595  0.756837  1
  Ti  Ti11  1  0.993472  0.493953  0.251852  1
  Ti  Ti12  1  0.992450  0.498824  0.742362  1
  Ti  Ti13  1  0.506420  0.007949  0.250136  1
  Ti  Ti14  1  0.492468  0.005224  0.751378  1
  Ti  Ti15  1  0.493081  0.497438  0.257385  1
  Ti  Ti16  1  0.500978  0.504778  0.758048  1
  Ti  Ti17  1  0.995219  0.257080  0.001059  1
  Ti  Ti18  1  0.998858  0.247868  0.491349  1
  Ti  Ti19  1  0.997959  0.757979  0.006226  1
  Ti  Ti20  1  0.998193  0.756549  0.506079  1
  Ti  Ti21  1  0.494631  0.257958  0.000187  1
  Ti  Ti22  1  0.507980  0.245447  0.499989  1
  Ti  Ti23  1  0.507190  0.756836  0.998806  1
  Ti  Ti24  1  0.506836  0.752902  0.509030  1
  Ti  Ti25  1  0.999513  0.258063  0.255249  1
  Ti  Ti26  1  0.006350  0.242193  0.747130  1
  Ti  Ti27  1  0.006981  0.748664  0.243125  1
  Ti  Ti28  1  0.992912  0.750938  0.743428  1
  Ti  Ti29  1  0.508164  0.242339  0.250931  1
  Ti  Ti30  1  0.506634  0.242889  0.749572  1
  Ti  Ti31  1  0.507032  0.751638  0.251794  1
  Ti  Ti32  1  0.501542  0.742543  0.743212  1
  Ti  Ti33  1  0.256213  0.998863  0.006112  1
  Ti  Ti34  1  0.249125  0.993807  0.506615  1
  Ti  Ti35  1  0.243423  0.507596  0.997817  1
  Ti  Ti36  1  0.254127  0.494173  0.506399  1
  Ti  Ti37  1  0.757252  0.000388  0.994309  1
  Ti  Ti38  1  0.751249  0.006505  0.494280  1
  Ti  Ti39  1  0.742062  0.500564  0.005161  1
  Ti  Ti40  1  0.755681  0.497864  0.505268  1
  Ti  Ti41  1  0.244686  0.002115  0.243847  1
  Ti  Ti42  1  0.257189  0.997887  0.744256  1
  Ti  Ti43  1  0.255373  0.492403  0.251953  1
  Ti  Ti44  1  0.247424  0.506346  0.741212  1
  Ti  Ti45  1  0.744877  0.999716  0.255930  1
  Ti  Ti46  1  0.748405  0.006236  0.756336  1
  Ti  Ti47  1  0.756015  0.499497  0.242912  1
  Ti  Ti48  1  0.757306  0.498282  0.742860  1
  Ti  Ti49  1  0.257330  0.251111  0.005634  1
  Ti  Ti50  1  0.252750  0.256716  0.505538  1
  Ti  Ti51  1  0.251781  0.742589  0.993400  1
  Ti  Ti52  1  0.251312  0.755431  0.492770  1
  Ti  Ti53  1  0.757352  0.250216  0.006600  1
  Ti  Ti54  1  0.743275  0.242459  0.498107  1
  Ti  Ti55  1  0.741917  0.750005  0.994025  1
  Ti  Ti56  1  0.741905  0.752016  0.494075  1
  Ti  Ti57  1  0.251463  0.257514  0.243572  1
  Ti  Ti58  1  0.244028  0.251389  0.743531  1
  Ti  Ti59  1  0.243978  0.748282  0.255656  1
  Ti  Ti60  1  0.248220  0.741935  0.756670  1
  Ti  Ti61  1  0.742564  0.250627  0.242010  1
  Ti  Ti62  1  0.744121  0.241959  0.750631  1
  Ti  Ti63  1  0.745842  0.750455  0.256713  1
  Ti  Ti64  1  0.757373  0.751295  0.756831  1
  O  O65  1  0.004591  0.501212  0.624732  1
  O  O66  1  0.994326  0.005672  0.376186  1
  O  O67  1  0.998575  0.002484  0.872927  1
  O  O68  1  0.502111  0.496632  0.375191  1
  O  O69  1  0.496462  0.499893  0.874466  1
  O  O70  1  0.998266  0.746826  0.125817  1
  O  O71  1  0.000537  0.746598  0.624310  1
  O  O72  1  0.500329  0.756299  0.624651  1
  O  O73  1  0.997329  0.246233  0.376534  1
  O  O74  1  0.253665  0.003610  0.125426  1
  O  O75  1  0.252536  0.003701  0.625342  1
  O  O76  1  0.241669  0.496500  0.625727  1
  O  O77  1  0.753098  0.494808  0.125689  1
  O  O78  1  0.748756  0.496291  0.624170  1
  O  O79  1  0.752669  0.996980  0.376088  1
  O  O80  1  0.747544  0.996684  0.873677  1
  O  O81  1  0.248559  0.249090  0.125625  1
  O  O82  1  0.254322  0.248931  0.625135  1
  O  O83  1  0.745683  0.254910  0.125994  1
  O  O84  1  0.253810  0.747226  0.374604  1
  O  O85  1  0.250506  0.753165  0.875103  1
  O  O86  1  0.751544  0.754339  0.374096  1
  O  O87  1  0.747385  0.754561  0.875396  1
  O  O88  1  0.124337  0.501701  0.997471  1
  O  O89  1  0.625828  0.505589  0.000534  1
  O  O90  1  0.125382  0.001278  0.253120  1
  O  O91  1  0.625152  0.998595  0.251658  1
  O  O92  1  0.624422  0.252237  0.498512  1
  O  O93  1  0.624708  0.744494  0.004032  1
  O  O94  1  0.624674  0.757181  0.497096  1
  O  O95  1  0.124580  0.250029  0.747174  1
  O  O96  1  0.125604  0.752940  0.251040  1
  O  O97  1  0.625440  0.247820  0.258528  1
  O  O98  1  0.625340  0.251047  0.744332  1
  O  O99  1  0.623106  0.755072  0.250161  1
  O  O100  1  0.375843  0.001842  0.993424  1
  O  O101  1  0.375222  0.501568  0.501546  1
  O  O102  1  0.872965  0.003864  0.001490  1
  O  O103  1  0.875302  0.498551  0.496665  1
  O  O104  1  0.375843  0.995924  0.755270  1
  O  O105  1  0.374047  0.497940  0.251478  1
  O  O106  1  0.875619  0.499638  0.255105  1
  O  O107  1  0.875107  0.505840  0.749730  1
  O  O108  1  0.375677  0.246677  0.000629  1
  O  O109  1  0.874170  0.246334  0.002221  1
  O  O110  1  0.874903  0.746432  0.750402  1
  O  O111  1  0.504841  0.122756  0.499398  1
  O  O112  1  0.995132  0.125878  0.743661  1
  O  O113  1  0.497564  0.124925  0.258115  1
  O  O114  1  0.500035  0.123712  0.744078  1
  O  O115  1  0.500174  0.625690  0.747355  1
  O  O116  1  0.998476  0.374866  0.003697  1
  O  O117  1  0.999580  0.874948  0.000804  1
  O  O118  1  0.001646  0.874734  0.497934  1
  O  O119  1  0.501021  0.374168  0.003817  1
  O  O120  1  0.502335  0.875543  0.000653  1
  O  O121  1  0.004295  0.373826  0.248264  1
  O  O122  1  0.253211  0.625161  0.000716  1
  O  O123  1  0.747494  0.124968  0.501798  1
  O  O124  1  0.249781  0.624677  0.750851  1
  O  O125  1  0.752605  0.124601  0.746520  1
  O  O126  1  0.248717  0.373017  0.494409  1
  O  O127  1  0.247609  0.875723  0.500268  1
  O  O128  1  0.243940  0.374506  0.255594  1
  F  F129  1  0.001020  0.001624  0.126946  1
  F  F130  1  0.005309  0.997619  0.623558  1
  F  F131  1  0.997423  0.507321  0.125380  1
  F  F132  1  0.496078  0.002931  0.126242  1
  F  F133  1  0.498857  0.991414  0.623050  1
  F  F134  1  0.500098  0.504771  0.127247  1
  F  F135  1  0.504977  0.498012  0.624564  1
  F  F136  1  0.006379  0.496960  0.376139  1
  F  F137  1  0.998184  0.498198  0.873109  1
  F  F138  1  0.500677  0.993858  0.376912  1
  F  F139  1  0.513399  0.003671  0.874699  1
  F  F140  1  0.004065  0.245882  0.127281  1
  F  F141  1  0.996742  0.257888  0.621359  1
  F  F142  1  0.504912  0.243128  0.126520  1
  F  F143  1  0.492059  0.251935  0.623122  1
  F  F144  1  0.495419  0.749274  0.126786  1
  F  F145  1  0.998365  0.249931  0.874171  1
  F  F146  1  0.995159  0.749514  0.375215  1
  F  F147  1  0.002509  0.750304  0.874010  1
  F  F148  1  0.494415  0.258173  0.376118  1
  F  F149  1  0.503573  0.247767  0.874276  1
  F  F150  1  0.494100  0.751324  0.375572  1
  F  F151  1  0.499606  0.750109  0.873778  1
  F  F152  1  0.247677  0.495506  0.124881  1
  F  F153  1  0.748048  0.005744  0.126704  1
  F  F154  1  0.745137  0.997776  0.623066  1
  F  F155  1  0.253909  0.000541  0.375663  1
  F  F156  1  0.244201  0.994440  0.874475  1
  F  F157  1  0.244453  0.510326  0.375243  1
  F  F158  1  0.256566  0.496550  0.873720  1
  F  F159  1  0.744031  0.503494  0.374815  1
  F  F160  1  0.749859  0.503047  0.874103  1
  F  F161  1  0.253005  0.753490  0.124948  1
  F  F162  1  0.249873  0.750299  0.624963  1
  F  F163  1  0.754493  0.258278  0.623132  1
  F  F164  1  0.753075  0.746332  0.125948  1
  F  F165  1  0.748629  0.746995  0.624292  1
  F  F166  1  0.250091  0.243969  0.374614  1
  F  F167  1  0.249355  0.251757  0.875187  1
  F  F168  1  0.758656  0.246745  0.374300  1
  F  F169  1  0.748719  0.247639  0.875747  1
  F  F170  1  0.125946  0.000124  0.001233  1
  F  F171  1  0.124667  0.009757  0.496706  1
  F  F172  1  0.123233  0.502365  0.495281  1
  F  F173  1  0.625209  0.999837  0.006265  1
  F  F174  1  0.623970  0.989394  0.500165  1
  F  F175  1  0.625319  0.497355  0.500246  1
  F  F176  1  0.126649  0.001450  0.748674  1
  F  F177  1  0.123993  0.505369  0.246774  1
  F  F178  1  0.123238  0.494979  0.759897  1
  F  F179  1  0.623655  0.996301  0.742643  1
  F  F180  1  0.625277  0.497893  0.247798  1
  F  F181  1  0.626415  0.494855  0.752554  1
  F  F182  1  0.124920  0.251217  0.997401  1
  F  F183  1  0.123444  0.242658  0.501367  1
  F  F184  1  0.125172  0.747718  0.001636  1
  F  F185  1  0.124271  0.745408  0.496926  1
  F  F186  1  0.625934  0.250425  0.997355  1
  F  F187  1  0.124474  0.239271  0.253667  1
  F  F188  1  0.123533  0.752224  0.749843  1
  F  F189  1  0.626278  0.752804  0.748946  1
  F  F190  1  0.377061  0.001626  0.498121  1
  F  F191  1  0.373494  0.497619  0.005215  1
  F  F192  1  0.874980  0.001474  0.510462  1
  F  F193  1  0.874659  0.499574  0.996803  1
  F  F194  1  0.377306  0.997738  0.254658  1
  F  F195  1  0.374702  0.496761  0.743310  1
  F  F196  1  0.873897  0.000755  0.245783  1
  F  F197  1  0.874216  0.992318  0.741455  1
  F  F198  1  0.378628  0.246611  0.495660  1
  F  F199  1  0.376660  0.754377  0.000660  1
  F  F200  1  0.377028  0.748295  0.501326  1
  F  F201  1  0.874266  0.253142  0.502124  1
  F  F202  1  0.872362  0.751887  0.998198  1
  F  F203  1  0.872732  0.747157  0.502253  1
  F  F204  1  0.377982  0.254973  0.249798  1
  F  F205  1  0.376108  0.250275  0.754609  1
  F  F206  1  0.377219  0.747558  0.248259  1
  F  F207  1  0.375127  0.756254  0.749685  1
  F  F208  1  0.874033  0.252205  0.247616  1
  F  F209  1  0.874127  0.254797  0.749575  1
  F  F210  1  0.873821  0.746056  0.249897  1
  F  F211  1  0.005134  0.126719  0.001604  1
  F  F212  1  0.994222  0.125464  0.509085  1
  F  F213  1  0.995725  0.625278  0.995302  1
  F  F214  1  0.998921  0.626190  0.493512  1
  F  F215  1  0.505724  0.124546  0.000294  1
  F  F216  1  0.492066  0.627494  0.001310  1
  F  F217  1  0.503947  0.626769  0.499868  1
  F  F218  1  0.994185  0.127288  0.246462  1
  F  F219  1  0.000717  0.623440  0.256309  1
  F  F220  1  0.008490  0.624548  0.754790  1
  F  F221  1  0.502594  0.626227  0.252238  1
  F  F222  1  0.004507  0.373475  0.497886  1
  F  F223  1  0.497596  0.372251  0.503643  1
  F  F224  1  0.493406  0.878071  0.495177  1
  F  F225  1  0.996960  0.374227  0.751176  1
  F  F226  1  0.993945  0.875750  0.252028  1
  F  F227  1  0.001710  0.875741  0.747875  1
  F  F228  1  0.501854  0.371978  0.243825  1
  F  F229  1  0.497822  0.373265  0.747732  1
  F  F230  1  0.495041  0.876069  0.249336  1
  F  F231  1  0.503469  0.875494  0.755279  1
  F  F232  1  0.244428  0.124800  0.993002  1
  F  F233  1  0.253477  0.124284  0.496569  1
  F  F234  1  0.249106  0.626410  0.504045  1
  F  F235  1  0.741671  0.125832  0.999698  1
  F  F236  1  0.758864  0.625624  0.000482  1
  F  F237  1  0.747346  0.625512  0.499125  1
  F  F238  1  0.257780  0.126279  0.254162  1
  F  F239  1  0.252019  0.124445  0.757840  1
  F  F240  1  0.250081  0.623807  0.242197  1
  F  F241  1  0.755808  0.125668  0.251694  1
  F  F242  1  0.745476  0.625278  0.249990  1
  F  F243  1  0.741400  0.625110  0.749477  1
  F  F244  1  0.250410  0.375964  0.998604  1
  F  F245  1  0.247733  0.874037  0.003565  1
  F  F246  1  0.749634  0.374794  0.991097  1
  F  F247  1  0.750917  0.372373  0.492382  1
  F  F248  1  0.748163  0.874958  0.010256  1
  F  F249  1  0.756995  0.876315  0.505498  1
  F  F250  1  0.252426  0.375819  0.755021  1
  F  F251  1  0.255985  0.875537  0.250469  1
  F  F252  1  0.245639  0.873571  0.745680  1
  F  F253  1  0.750147  0.374195  0.260795  1
  F  F254  1  0.752801  0.373734  0.755284  1
  F  F255  1  0.756286  0.875135  0.241056  1
  F  F256  1  0.749125  0.875298  0.742312  1

