# generated using pymatgen
data_TiOF2
_symmetry_space_group_name_H-M   'P 1'
_cell_length_a   15.26383587
_cell_length_b   15.26383587
_cell_length_c   15.26383587
_cell_angle_alpha   90.00000000
_cell_angle_beta   90.00000000
_cell_angle_gamma   90.00000000
_symmetry_Int_Tables_number   1
_chemical_formula_structural   TiOF2
_chemical_formula_sum   'Ti64 O64 F128'
_cell_volume   3556.24
_cell_formula_units_Z   64
loop_
 _symmetry_equiv_pos_site_id
 _symmetry_equiv_pos_as_xyz
  1  'x, y, z'
loop_
 _atom_site_type_symbol
 _atom_site_label
 _atom_site_symmetry_multiplicity
 _atom_site_fract_x
 _atom_site_fract_y
 _atom_site_fract_z
 _atom_site_occupancy
  Ti  Ti1  1  0.001078  0.995675  0.994730  1
  Ti  Ti2  1  0.002098  0.990877  0.504086  1
  Ti  Ti3  1  0.004798  0.497612  0.006500  1
  Ti  Ti4  1  0.008632  0.503208  0.505812  1
  Ti  Ti5  1  0.490606  0.005702  0.004034  1
  Ti  Ti6  1  0.498791  0.991993  0.490818  1
  Ti  Ti7  1  0.492117  0.497460  0.992755  1
  Ti  Ti8  1  0.498010  0.492800  0.491591  1
  Ti  Ti9  1  0.006021  0.011829  0.251359  1
  Ti  Ti10  1  0.995251  0.994467  0.758532  1
  Ti  Ti11  1  0.995794  0.499107  0.243944  1
  Ti  Ti12  1  0.001854  0.495831  0.744858  1
  Ti  Ti13  1  0.494588  0.007112  0.255643  1
  Ti  Ti14  1  0.509272  0.003123  0.747996  1
  Ti  Ti15  1  0.492259  0.496274  0.253465  1
  Ti  Ti16  1  0.494878  0.505967  0.752464  1
  Ti  Ti17  1  0.001537  0.258041  0.006296  1
  Ti  Ti18  1  0.004711  0.245861  0.507168  1
  Ti  Ti19  1  0.994835  0.759152  0.001251  1
  Ti  Ti20  1  0.002245  0.756986  0.493277  1
  Ti  Ti21  1  0.491015  0.244196  0.999346  1
  Ti  Ti22  1  0.506433  0.253644  0.499759  1
  Ti  Ti23  1  0.495088  0.752082  0.991662  1
  Ti  Ti24  1  0.501997  0.752978  0.491277  1
  Ti  Ti25  1  0.995499  0.244018  0.245122  1
  Ti  Ti26  1  0.998990  0.256279  0.743991  1
  Ti  Ti27  1  0.996127  0.755055  0.257859  1
  Ti  Ti28  1  0.990880  0.756188  0.748775  1
  Ti  Ti29  1  0.506956  0.239288  0.246703  1
  Ti  Ti30  1  0.493235  0.241213  0.751007  1
  Ti  Ti31  1  0.494769  0.749808  0.254802  1
  Ti  Ti32  1  0.504563  0.741322  0.752852  1
  Ti  Ti33  1  0.258212  0.999620  0.994146  1
  Ti  Ti34  1  0.250267  0.991529  0.493127  1
  Ti  Ti35  1  0.256544  0.496762  0.009150  1
  Ti  Ti36  1  0.241906  0.492548  0.495640  1
  Ti  Ti37  1  0.748111  0.996590  0.995479  1
  Ti  Ti38  1  0.751581  0.005301  0.493502  1
  Ti  Ti39  1  0.748011  0.496758  0.995359  1
  Ti  Ti40  1  0.753636  0.504917  0.492668  1
  Ti  Ti41  1  0.242806  0.003683  0.257042  1
  Ti  Ti42  1  0.253094  0.993596  0.755193  1
  Ti  Ti43  1  0.253040  0.490193  0.242835  1
  Ti  Ti44  1  0.259530  0.494440  0.751651  1
  Ti  Ti45  1  0.754081  0.008124  0.257961  1
  Ti  Ti46  1  0.743237  0.000844  0.758591  1
  Ti  Ti47  1  0.756617  0.496580  0.254886  1
  Ti  Ti48  1  0.751001  0.492301  0.755737  1
  Ti  Ti49  1  0.258495  0.253888  0.006782  1
  Ti  Ti50  1  0.242717  0.252210  0.498170  1
  Ti  Ti51  1  0.255648  0.750339  0.992532  1
  Ti  Ti52  1  0.247075  0.752342  0.492487  1
  Ti  Ti53  1  0.745184  0.259853  0.994434  1
  Ti  Ti54  1  0.744910  0.243075  0.502828  1
  Ti  Ti55  1  0.755363  0.759474  0.997583  1
  Ti  Ti56  1  0.753118  0.742356  0.507710  1
  Ti  Ti57  1  0.251231  0.259664  0.244949  1
  Ti  Ti58  1  0.258091  0.254554  0.755118  1
  Ti  Ti59  1  0.255484  0.747605  0.255094  1
  Ti  Ti60  1  0.247943  0.753956  0.754786  1
  Ti  Ti61  1  0.744465  0.242224  0.248379  1
  Ti  Ti62  1  0.747977  0.259702  0.757667  1
  Ti  Ti63  1  0.756605  0.754176  0.252845  1
  Ti  Ti64  1  0.759181  0.746854  0.744097  1
  O  O65  1  0.014438  0.509614  0.125776  1
  O  O66  1  0.010501  0.509309  0.625231  1
  O  O67  1  0.982848  0.991526  0.876343  1
  O  O68  1  0.480189  0.011875  0.373675  1
  O  O69  1  0.491980  0.511722  0.373921  1
  O  O70  1  0.493787  0.508611  0.875359  1
  O  O71  1  0.987295  0.246447  0.126457  1
  O  O72  1  0.985234  0.240928  0.625087  1
  O  O73  1  0.017438  0.763727  0.376212  1
  O  O74  1  0.511663  0.734181  0.373454  1
  O  O75  1  0.510545  0.741538  0.874188  1
  O  O76  1  0.231262  0.482438  0.123615  1
  O  O77  1  0.268040  0.005512  0.374687  1
  O  O78  1  0.264130  0.008585  0.875524  1
  O  O79  1  0.764510  0.984590  0.375206  1
  O  O80  1  0.766419  0.997867  0.876225  1
  O  O81  1  0.754944  0.485191  0.374784  1
  O  O82  1  0.755909  0.494077  0.875518  1
  O  O83  1  0.262534  0.268184  0.124277  1
  O  O84  1  0.769413  0.740607  0.625228  1
  O  O85  1  0.235833  0.737771  0.374177  1
  O  O86  1  0.238647  0.739949  0.874016  1
  O  O87  1  0.729407  0.258401  0.875776  1
  O  O88  1  0.125123  0.515820  0.485903  1
  O  O89  1  0.124125  0.017876  0.267888  1
  O  O90  1  0.625745  0.982771  0.765192  1
  O  O91  1  0.124404  0.233793  0.510376  1
  O  O92  1  0.625538  0.237660  0.513053  1
  O  O93  1  0.625608  0.233949  0.234602  1
  O  O94  1  0.374680  0.981071  0.016267  1
  O  O95  1  0.374143  0.479840  0.010668  1
  O  O96  1  0.374888  0.486163  0.237711  1
  O  O97  1  0.374681  0.510172  0.736589  1
  O  O98  1  0.875821  0.489366  0.240246  1
  O  O99  1  0.375208  0.266751  0.980504  1
  O  O100  1  0.374381  0.765673  0.992304  1
  O  O101  1  0.875423  0.762861  0.986646  1
  O  O102  1  0.376260  0.235661  0.769772  1
  O  O103  1  0.374826  0.759214  0.257854  1
  O  O104  1  0.873741  0.765380  0.264005  1
  O  O105  1  0.874985  0.735464  0.770467  1
  O  O106  1  0.484570  0.125728  0.012377  1
  O  O107  1  0.978072  0.125776  0.263466  1
  O  O108  1  0.482830  0.123638  0.230133  1
  O  O109  1  0.514432  0.123109  0.741740  1
  O  O110  1  0.517706  0.625119  0.737304  1
  O  O111  1  0.012442  0.377001  0.002528  1
  O  O112  1  0.013140  0.878029  0.013180  1
  O  O113  1  0.019972  0.876089  0.516409  1
  O  O114  1  0.507566  0.371718  0.485685  1
  O  O115  1  0.512886  0.873651  0.486744  1
  O  O116  1  0.987665  0.375846  0.747091  1
  O  O117  1  0.987040  0.876063  0.736365  1
  O  O118  1  0.764425  0.123644  0.489947  1
  O  O119  1  0.766277  0.626150  0.486203  1
  O  O120  1  0.769070  0.126329  0.263977  1
  O  O121  1  0.240337  0.372171  0.486593  1
  O  O122  1  0.232302  0.872805  0.493958  1
  O  O123  1  0.739209  0.377544  0.013851  1
  O  O124  1  0.738212  0.877906  0.009917  1
  O  O125  1  0.233646  0.372375  0.269705  1
  O  O126  1  0.258024  0.373143  0.763372  1
  O  O127  1  0.259009  0.874282  0.754045  1
  O  O128  1  0.769698  0.375126  0.739297  1
  F  F129  1  0.014191  0.016466  0.125738  1
  F  F130  1  0.015949  0.017594  0.624687  1
  F  F131  1  0.518835  0.985456  0.126223  1
  F  F132  1  0.516368  0.988539  0.622108  1
  F  F133  1  0.513179  0.484564  0.124276  1
  F  F134  1  0.509259  0.485550  0.622722  1
  F  F135  1  0.982455  0.982327  0.377546  1
  F  F136  1  0.988450  0.493672  0.376146  1
  F  F137  1  0.987337  0.501647  0.875453  1
  F  F138  1  0.482366  0.006255  0.875167  1
  F  F139  1  0.986585  0.740208  0.127905  1
  F  F140  1  0.979866  0.736815  0.621987  1
  F  F141  1  0.481900  0.270444  0.124843  1
  F  F142  1  0.481121  0.259324  0.625088  1
  F  F143  1  0.497347  0.764263  0.124749  1
  F  F144  1  0.490049  0.760579  0.622505  1
  F  F145  1  0.009729  0.257572  0.375371  1
  F  F146  1  0.013823  0.250995  0.875419  1
  F  F147  1  0.019950  0.761592  0.874329  1
  F  F148  1  0.511243  0.227183  0.373631  1
  F  F149  1  0.525438  0.240526  0.876227  1
  F  F150  1  0.233338  0.993923  0.125317  1
  F  F151  1  0.232326  0.995616  0.623855  1
  F  F152  1  0.234414  0.488382  0.624593  1
  F  F153  1  0.735999  0.012813  0.127544  1
  F  F154  1  0.737539  0.004666  0.624549  1
  F  F155  1  0.743037  0.518399  0.125885  1
  F  F156  1  0.746397  0.512643  0.624972  1
  F  F157  1  0.265918  0.515641  0.373765  1
  F  F158  1  0.260992  0.516593  0.876702  1
  F  F159  1  0.265499  0.256614  0.625650  1
  F  F160  1  0.253339  0.761302  0.124712  1
  F  F161  1  0.261037  0.752205  0.623100  1
  F  F162  1  0.770359  0.240635  0.124848  1
  F  F163  1  0.767943  0.238726  0.627235  1
  F  F164  1  0.762261  0.739389  0.126767  1
  F  F165  1  0.241586  0.226940  0.372879  1
  F  F166  1  0.231602  0.232256  0.877856  1
  F  F167  1  0.736765  0.266824  0.374690  1
  F  F168  1  0.732980  0.765833  0.375904  1
  F  F169  1  0.731068  0.760199  0.872873  1
  F  F170  1  0.126208  0.019124  0.988701  1
  F  F171  1  0.123026  0.019104  0.481363  1
  F  F172  1  0.127544  0.517291  0.981788  1
  F  F173  1  0.622426  0.016092  0.985679  1
  F  F174  1  0.624459  0.014575  0.484677  1
  F  F175  1  0.623436  0.517076  0.996961  1
  F  F176  1  0.625641  0.512374  0.497188  1
  F  F177  1  0.123634  0.991820  0.762452  1
  F  F178  1  0.124599  0.514946  0.267737  1
  F  F179  1  0.125927  0.491423  0.765529  1
  F  F180  1  0.624398  0.013882  0.264543  1
  F  F181  1  0.625670  0.509092  0.253590  1
  F  F182  1  0.625903  0.481305  0.751363  1
  F  F183  1  0.127023  0.235210  0.012598  1
  F  F184  1  0.124520  0.736591  0.012314  1
  F  F185  1  0.122605  0.726672  0.519273  1
  F  F186  1  0.622714  0.238461  0.023364  1
  F  F187  1  0.625621  0.737965  0.011751  1
  F  F188  1  0.626320  0.733908  0.515436  1
  F  F189  1  0.124935  0.230004  0.240941  1
  F  F190  1  0.125896  0.256337  0.736874  1
  F  F191  1  0.122463  0.739997  0.235515  1
  F  F192  1  0.122415  0.759390  0.731000  1
  F  F193  1  0.624462  0.264621  0.729105  1
  F  F194  1  0.627701  0.740330  0.238891  1
  F  F195  1  0.628443  0.770109  0.734824  1
  F  F196  1  0.374610  0.982896  0.521386  1
  F  F197  1  0.372863  0.490345  0.513124  1
  F  F198  1  0.875014  0.996010  0.022195  1
  F  F199  1  0.877004  0.981503  0.519886  1
  F  F200  1  0.875778  0.496033  0.011989  1
  F  F201  1  0.877416  0.485244  0.509388  1
  F  F202  1  0.373036  0.980193  0.230420  1
  F  F203  1  0.376528  0.010319  0.730688  1
  F  F204  1  0.876555  0.981437  0.234021  1
  F  F205  1  0.873359  0.017716  0.731069  1
  F  F206  1  0.875193  0.523198  0.742839  1
  F  F207  1  0.375036  0.250953  0.486168  1
  F  F208  1  0.374294  0.760291  0.488046  1
  F  F209  1  0.874191  0.260944  0.983862  1
  F  F210  1  0.874723  0.263170  0.486240  1
  F  F211  1  0.875988  0.773058  0.481253  1
  F  F212  1  0.377322  0.263476  0.265766  1
  F  F213  1  0.374959  0.734046  0.754517  1
  F  F214  1  0.872996  0.273995  0.263999  1
  F  F215  1  0.873780  0.232883  0.769495  1
  F  F216  1  0.988735  0.126753  0.994380  1
  F  F217  1  0.981655  0.119824  0.486408  1
  F  F218  1  0.991852  0.628177  0.992286  1
  F  F219  1  0.979596  0.628615  0.488951  1
  F  F220  1  0.488290  0.121413  0.514103  1
  F  F221  1  0.485620  0.625037  0.016039  1
  F  F222  1  0.489035  0.624121  0.513629  1
  F  F223  1  0.009900  0.124423  0.757978  1
  F  F224  1  0.988766  0.627959  0.262667  1
  F  F225  1  0.015128  0.627767  0.757769  1
  F  F226  1  0.492933  0.624073  0.229809  1
  F  F227  1  0.012493  0.374646  0.505134  1
  F  F228  1  0.520981  0.372378  0.989187  1
  F  F229  1  0.519301  0.877956  0.989885  1
  F  F230  1  0.019458  0.374088  0.248421  1
  F  F231  1  0.013456  0.878400  0.236320  1
  F  F232  1  0.513885  0.370045  0.264637  1
  F  F233  1  0.492675  0.371683  0.759173  1
  F  F234  1  0.514682  0.876178  0.260038  1
  F  F235  1  0.484053  0.874773  0.754945  1
  F  F236  1  0.266050  0.126160  0.014679  1
  F  F237  1  0.262739  0.121105  0.510797  1
  F  F238  1  0.264481  0.624542  0.015790  1
  F  F239  1  0.263885  0.623291  0.510267  1
  F  F240  1  0.758125  0.128090  0.998109  1
  F  F241  1  0.758929  0.628369  0.992054  1
  F  F242  1  0.269217  0.125718  0.235763  1
  F  F243  1  0.239248  0.123953  0.739747  1
  F  F244  1  0.257315  0.623250  0.233916  1
  F  F245  1  0.235728  0.623681  0.738283  1
  F  F246  1  0.734204  0.127126  0.752299  1
  F  F247  1  0.759187  0.627770  0.264960  1
  F  F248  1  0.729212  0.624989  0.757933  1
  F  F249  1  0.228283  0.374639  0.976979  1
  F  F250  1  0.226876  0.876019  0.993346  1
  F  F251  1  0.741265  0.374838  0.515058  1
  F  F252  1  0.735148  0.874089  0.510473  1
  F  F253  1  0.233778  0.875093  0.255456  1
  F  F254  1  0.736033  0.373464  0.232330  1
  F  F255  1  0.734536  0.876593  0.234818  1
  F  F256  1  0.769630  0.875755  0.742731  1

