#
# CIF written by cell_write_cif: Keith Refson, Apr 2010
#
data_TiF4_apo
_audit_creation_date '08:23:30 (GMT+1.0) 30th March 2019'
_audit_creation_method 'Generated by CASTEP 16.100'
 
_symmetry_Int_Tables_number          62
_symmetry_space_group_name_Hall    '-P 2ac 2n'
loop_
_symmetry_equiv_pos_as_xyz
 x,y,z
 -x,-y,-z
 -x+1/2,-y,z+1/2
 x+1/2,y,-z+1/2
 x+1/2,-y+1/2,-z+1/2
 -x+1/2,y+1/2,z+1/2
 -x,y+1/2,-z
 x,-y+1/2,z
 
_cell_length_a           22.811000000000003
_cell_length_b            3.848000000000000
_cell_length_c            9.568000000000000
_cell_angle_alpha        90.000000000000000
_cell_angle_beta         90.000000000000000
_cell_angle_gamma        90.000000000000000
 
loop_
_atom_site_label
_atom_site_fract_x
_atom_site_fract_y
_atom_site_fract_z
_atom_site_U_iso_or_equiv
_atom_site_occupancy
F1     0.773652246901997  0.250000000000000  0.306615964662575 0.0100 1.0000
F2     0.419834306576161  0.250000000000000  0.335389638705276 0.0100 1.0000
F3     0.525482782407818  0.250000000000000  0.116230737425097 0.0100 1.0000
F4     0.091095472799470  0.250000000000000  0.030637210612690 0.0100 1.0000
F5     0.160628449824783  0.250000000000000  0.809794040604965 0.0100 1.0000
F6     0.399685799499015  0.250000000000000  0.963770714903881 0.0100 1.0000
F7     0.273454828669923  0.250000000000000  0.853905995367978 0.0100 1.0000
F8     0.635924594140619  0.250000000000000  0.213272711073068 0.0100 1.0000
F9     0.175699807979340  0.250000000000000  0.543483080379084 0.0100 1.0000
F10    0.292366833641678  0.250000000000000  0.574850788321372 0.0100 1.0000
F11   -0.001890752940218  0.250000000000000  0.861693409768989 0.0100 1.0000
F12    0.570621612238051  0.250000000000000  0.857406277738348 0.0100 1.0000
Ti1    0.234397989959670  0.250000000000000  0.695433000889421 0.0100 1.0000
Ti2    0.597979817154293  0.250000000000000  0.054055571111279 0.0100 1.0000
Ti3    0.075169390147870  0.250000000000000  0.852344306743961 0.0100 1.0000
