# generated using pymatgen
data_TiOF2
_symmetry_space_group_name_H-M   'P 1'
_cell_length_a   15.26383587
_cell_length_b   15.26383587
_cell_length_c   15.26383587
_cell_angle_alpha   90.00000000
_cell_angle_beta   90.00000000
_cell_angle_gamma   90.00000000
_symmetry_Int_Tables_number   1
_chemical_formula_structural   TiOF2
_chemical_formula_sum   'Ti64 O64 F128'
_cell_volume   3556.24
_cell_formula_units_Z   64
loop_
 _symmetry_equiv_pos_site_id
 _symmetry_equiv_pos_as_xyz
  1  'x, y, z'
loop_
 _atom_site_type_symbol
 _atom_site_label
 _atom_site_symmetry_multiplicity
 _atom_site_fract_x
 _atom_site_fract_y
 _atom_site_fract_z
 _atom_site_occupancy
  Ti  Ti1  1  0.001072  0.994943  0.995006  1
  Ti  Ti2  1  0.002135  0.991012  0.504203  1
  Ti  Ti3  1  0.004118  0.497061  0.006938  1
  Ti  Ti4  1  0.007601  0.503537  0.506420  1
  Ti  Ti5  1  0.490544  0.005587  0.003977  1
  Ti  Ti6  1  0.498810  0.992511  0.490608  1
  Ti  Ti7  1  0.493365  0.497420  0.992105  1
  Ti  Ti8  1  0.499183  0.493306  0.491516  1
  Ti  Ti9  1  0.005906  0.011668  0.251509  1
  Ti  Ti10  1  0.995264  0.993986  0.758602  1
  Ti  Ti11  1  0.995273  0.499047  0.244690  1
  Ti  Ti12  1  0.000716  0.495610  0.744726  1
  Ti  Ti13  1  0.494598  0.007426  0.255496  1
  Ti  Ti14  1  0.509179  0.003382  0.747706  1
  Ti  Ti15  1  0.493169  0.496662  0.254026  1
  Ti  Ti16  1  0.496070  0.506382  0.752931  1
  Ti  Ti17  1  0.001556  0.257292  0.006697  1
  Ti  Ti18  1  0.004813  0.245883  0.507281  1
  Ti  Ti19  1  0.994835  0.758625  0.001404  1
  Ti  Ti20  1  0.002277  0.757390  0.493106  1
  Ti  Ti21  1  0.491064  0.243922  0.999633  1
  Ti  Ti22  1  0.506619  0.254176  0.499693  1
  Ti  Ti23  1  0.494967  0.751861  0.991366  1
  Ti  Ti24  1  0.501853  0.753526  0.490875  1
  Ti  Ti25  1  0.995603  0.243577  0.245450  1
  Ti  Ti26  1  0.998964  0.255932  0.744047  1
  Ti  Ti27  1  0.996137  0.754969  0.257698  1
  Ti  Ti28  1  0.990871  0.755958  0.748558  1
  Ti  Ti29  1  0.506983  0.239474  0.246853  1
  Ti  Ti30  1  0.493511  0.241418  0.750897  1
  Ti  Ti31  1  0.494618  0.749976  0.254351  1
  Ti  Ti32  1  0.504547  0.741495  0.752465  1
  Ti  Ti33  1  0.258065  0.999519  0.993977  1
  Ti  Ti34  1  0.250240  0.991921  0.492842  1
  Ti  Ti35  1  0.257128  0.496497  0.008247  1
  Ti  Ti36  1  0.241894  0.492935  0.495956  1
  Ti  Ti37  1  0.747979  0.995971  0.995664  1
  Ti  Ti38  1  0.751559  0.005515  0.493484  1
  Ti  Ti39  1  0.747062  0.496107  0.995594  1
  Ti  Ti40  1  0.753001  0.505141  0.492703  1
  Ti  Ti41  1  0.242868  0.003687  0.256845  1
  Ti  Ti42  1  0.253042  0.993709  0.755218  1
  Ti  Ti43  1  0.253486  0.490255  0.243262  1
  Ti  Ti44  1  0.259610  0.494591  0.752610  1
  Ti  Ti45  1  0.753972  0.008092  0.258092  1
  Ti  Ti46  1  0.743211  0.000577  0.758620  1
  Ti  Ti47  1  0.755856  0.496504  0.255459  1
  Ti  Ti48  1  0.750250  0.491922  0.755703  1
  Ti  Ti49  1  0.258338  0.253703  0.006958  1
  Ti  Ti50  1  0.242785  0.252722  0.498064  1
  Ti  Ti51  1  0.255700  0.749935  0.992350  1
  Ti  Ti52  1  0.247158  0.752671  0.492068  1
  Ti  Ti53  1  0.745212  0.259488  0.994810  1
  Ti  Ti54  1  0.745099  0.243198  0.502936  1
  Ti  Ti55  1  0.755212  0.759016  0.997693  1
  Ti  Ti56  1  0.753031  0.742419  0.507482  1
  Ti  Ti57  1  0.251108  0.259889  0.245128  1
  Ti  Ti58  1  0.258121  0.254794  0.755284  1
  Ti  Ti59  1  0.255463  0.747435  0.254553  1
  Ti  Ti60  1  0.248107  0.753947  0.754638  1
  Ti  Ti61  1  0.744671  0.242149  0.248826  1
  Ti  Ti62  1  0.748221  0.259683  0.757967  1
  Ti  Ti63  1  0.756494  0.754060  0.252633  1
  Ti  Ti64  1  0.758937  0.746656  0.743979  1
  O  O65  1  0.007879  0.511079  0.126026  1
  O  O66  1  0.001223  0.511429  0.625351  1
  O  O67  1  0.983848  0.989323  0.876490  1
  O  O68  1  0.480730  0.013390  0.373501  1
  O  O69  1  0.500158  0.513493  0.373967  1
  O  O70  1  0.503712  0.509833  0.875338  1
  O  O71  1  0.987978  0.243677  0.126705  1
  O  O72  1  0.986120  0.239142  0.625289  1
  O  O73  1  0.016571  0.765809  0.376056  1
  O  O74  1  0.510195  0.733845  0.373143  1
  O  O75  1  0.509422  0.740540  0.873840  1
  O  O76  1  0.237898  0.480107  0.123461  1
  O  O77  1  0.267758  0.006980  0.374513  1
  O  O78  1  0.263227  0.009933  0.875431  1
  O  O79  1  0.763542  0.983932  0.375261  1
  O  O80  1  0.765723  0.996155  0.876378  1
  O  O81  1  0.746667  0.485034  0.375046  1
  O  O82  1  0.746815  0.492154  0.875563  1
  O  O83  1  0.261257  0.268855  0.124455  1
  O  O84  1  0.768102  0.739426  0.625068  1
  O  O85  1  0.237185  0.736767  0.373815  1
  O  O86  1  0.239918  0.738319  0.873779  1
  O  O87  1  0.729953  0.259452  0.876104  1
  O  O88  1  0.124951  0.516659  0.494137  1
  O  O89  1  0.124075  0.017409  0.267118  1
  O  O90  1  0.625705  0.982626  0.764319  1
  O  O91  1  0.124506  0.233807  0.509363  1
  O  O92  1  0.625706  0.237532  0.512249  1
  O  O93  1  0.625723  0.234318  0.235898  1
  O  O94  1  0.374625  0.980680  0.015343  1
  O  O95  1  0.374561  0.480092  0.001804  1
  O  O96  1  0.375249  0.487256  0.244726  1
  O  O97  1  0.375236  0.511270  0.745908  1
  O  O98  1  0.875428  0.489205  0.247401  1
  O  O99  1  0.375221  0.266755  0.981432  1
  O  O100  1  0.374342  0.765657  0.993085  1
  O  O101  1  0.875317  0.762631  0.987830  1
  O  O102  1  0.376379  0.235783  0.768630  1
  O  O103  1  0.374746  0.758987  0.256075  1
  O  O104  1  0.873667  0.764887  0.262730  1
  O  O105  1  0.874872  0.735088  0.769580  1
  O  O106  1  0.484392  0.125551  0.013549  1
  O  O107  1  0.978425  0.125581  0.265437  1
  O  O108  1  0.483365  0.123853  0.229220  1
  O  O109  1  0.514539  0.123336  0.740419  1
  O  O110  1  0.518112  0.625461  0.735721  1
  O  O111  1  0.012447  0.376366  0.005089  1
  O  O112  1  0.013090  0.877462  0.014736  1
  O  O113  1  0.020140  0.876273  0.517462  1
  O  O114  1  0.508662  0.372222  0.484841  1
  O  O115  1  0.513025  0.874204  0.485404  1
  O  O116  1  0.986875  0.375524  0.745702  1
  O  O117  1  0.986854  0.875833  0.735164  1
  O  O118  1  0.764714  0.123877  0.489177  1
  O  O119  1  0.766163  0.626272  0.485131  1
  O  O120  1  0.768795  0.126246  0.265139  1
  O  O121  1  0.239736  0.372629  0.485399  1
  O  O122  1  0.232084  0.873201  0.492290  1
  O  O123  1  0.739170  0.377028  0.015324  1
  O  O124  1  0.737960  0.877385  0.011051  1
  O  O125  1  0.233846  0.372511  0.270608  1
  O  O126  1  0.258078  0.373291  0.765277  1
  O  O127  1  0.259069  0.874317  0.755426  1
  O  O128  1  0.770521  0.374993  0.739221  1
  F  F129  1  0.012965  0.017965  0.125844  1
  F  F130  1  0.014892  0.018694  0.624744  1
  F  F131  1  0.518136  0.984314  0.126150  1
  F  F132  1  0.515399  0.987657  0.621934  1
  F  F133  1  0.506161  0.482550  0.124180  1
  F  F134  1  0.500816  0.484723  0.622743  1
  F  F135  1  0.983384  0.981034  0.377589  1
  F  F136  1  0.995827  0.491867  0.376307  1
  F  F137  1  0.994801  0.499258  0.875443  1
  F  F138  1  0.483189  0.007852  0.875063  1
  F  F139  1  0.987784  0.737908  0.127904  1
  F  F140  1  0.980983  0.735467  0.621758  1
  F  F141  1  0.483132  0.271330  0.124997  1
  F  F142  1  0.482495  0.261205  0.625125  1
  F  F143  1  0.498576  0.765026  0.124431  1
  F  F144  1  0.491512  0.762151  0.622255  1
  F  F145  1  0.008886  0.259656  0.375612  1
  F  F146  1  0.013041  0.252498  0.875643  1
  F  F147  1  0.018790  0.762960  0.874314  1
  F  F148  1  0.509798  0.226581  0.373742  1
  F  F149  1  0.524827  0.238901  0.876390  1
  F  F150  1  0.233942  0.992388  0.125141  1
  F  F151  1  0.233080  0.994630  0.623700  1
  F  F152  1  0.243938  0.486687  0.624539  1
  F  F153  1  0.736713  0.013624  0.127666  1
  F  F154  1  0.738424  0.005794  0.624587  1
  F  F155  1  0.750479  0.518830  0.125974  1
  F  F156  1  0.754854  0.513683  0.625220  1
  F  F157  1  0.258448  0.518545  0.373570  1
  F  F158  1  0.251753  0.518592  0.876783  1
  F  F159  1  0.264274  0.258495  0.625715  1
  F  F160  1  0.251863  0.762760  0.124335  1
  F  F161  1  0.259521  0.754074  0.622868  1
  F  F162  1  0.769794  0.239024  0.125140  1
  F  F163  1  0.767221  0.237781  0.627512  1
  F  F164  1  0.760812  0.737613  0.126727  1
  F  F165  1  0.243077  0.226435  0.372920  1
  F  F166  1  0.232652  0.231102  0.877971  1
  F  F167  1  0.737975  0.267973  0.374954  1
  F  F168  1  0.734049  0.767114  0.375757  1
  F  F169  1  0.731975  0.761201  0.872832  1
  F  F170  1  0.126125  0.018713  0.989860  1
  F  F171  1  0.123035  0.019668  0.482050  1
  F  F172  1  0.127360  0.517651  0.988788  1
  F  F173  1  0.622369  0.015929  0.986529  1
  F  F174  1  0.624456  0.015252  0.485771  1
  F  F175  1  0.623428  0.517475  0.006411  1
  F  F176  1  0.625867  0.513114  0.506638  1
  F  F177  1  0.123578  0.991627  0.761283  1
  F  F178  1  0.124589  0.515048  0.262125  1
  F  F179  1  0.125773  0.490778  0.756138  1
  F  F180  1  0.624371  0.013496  0.263732  1
  F  F181  1  0.625749  0.509006  0.245842  1
  F  F182  1  0.626087  0.480720  0.741221  1
  F  F183  1  0.127001  0.234356  0.011714  1
  F  F184  1  0.124505  0.735809  0.011043  1
  F  F185  1  0.122618  0.726468  0.517850  1
  F  F186  1  0.622768  0.237782  0.023219  1
  F  F187  1  0.625493  0.737307  0.010624  1
  F  F188  1  0.626258  0.734049  0.513747  1
  F  F189  1  0.124945  0.230044  0.242485  1
  F  F190  1  0.125849  0.256543  0.737920  1
  F  F191  1  0.122566  0.740091  0.236279  1
  F  F192  1  0.122383  0.759417  0.732066  1
  F  F193  1  0.624709  0.264979  0.729774  1
  F  F194  1  0.627480  0.740821  0.239775  1
  F  F195  1  0.628467  0.770657  0.735784  1
  F  F196  1  0.374600  0.982942  0.520585  1
  F  F197  1  0.373224  0.490903  0.504198  1
  F  F198  1  0.874921  0.995415  0.021693  1
  F  F199  1  0.877031  0.981456  0.519137  1
  F  F200  1  0.875372  0.494829  0.003864  1
  F  F201  1  0.877143  0.484092  0.500432  1
  F  F202  1  0.373005  0.980651  0.230603  1
  F  F203  1  0.376509  0.010446  0.731158  1
  F  F204  1  0.876536  0.981475  0.234692  1
  F  F205  1  0.873353  0.017923  0.732095  1
  F  F206  1  0.874656  0.523528  0.752306  1
  F  F207  1  0.375112  0.252057  0.487449  1
  F  F208  1  0.374302  0.761343  0.489432  1
  F  F209  1  0.874190  0.260759  0.984861  1
  F  F210  1  0.874884  0.263608  0.487269  1
  F  F211  1  0.875987  0.773530  0.482388  1
  F  F212  1  0.377360  0.263589  0.264701  1
  F  F213  1  0.375055  0.734075  0.752481  1
  F  F214  1  0.873126  0.273849  0.263390  1
  F  F215  1  0.873828  0.232240  0.769241  1
  F  F216  1  0.988571  0.126153  0.992597  1
  F  F217  1  0.981757  0.119894  0.485221  1
  F  F218  1  0.991343  0.627690  0.990422  1
  F  F219  1  0.979526  0.628895  0.486610  1
  F  F220  1  0.488140  0.121904  0.514926  1
  F  F221  1  0.485149  0.624862  0.016321  1
  F  F222  1  0.488806  0.624788  0.514052  1
  F  F223  1  0.009947  0.124132  0.759694  1
  F  F224  1  0.989262  0.627853  0.264971  1
  F  F225  1  0.015214  0.627618  0.759017  1
  F  F226  1  0.493429  0.624247  0.228781  1
  F  F227  1  0.012730  0.374790  0.507972  1
  F  F228  1  0.521503  0.372059  0.988386  1
  F  F229  1  0.519161  0.877795  0.988568  1
  F  F230  1  0.019052  0.373926  0.245884  1
  F  F231  1  0.012904  0.878171  0.234621  1
  F  F232  1  0.513871  0.370241  0.265711  1
  F  F233  1  0.493186  0.371845  0.760912  1
  F  F234  1  0.514000  0.876393  0.260941  1
  F  F235  1  0.483876  0.875090  0.755931  1
  F  F236  1  0.266087  0.125938  0.015927  1
  F  F237  1  0.262790  0.121605  0.511670  1
  F  F238  1  0.265147  0.624335  0.017143  1
  F  F239  1  0.264477  0.623940  0.511223  1
  F  F240  1  0.758190  0.127627  0.996941  1
  F  F241  1  0.758796  0.627782  0.990385  1
  F  F242  1  0.268610  0.125748  0.234721  1
  F  F243  1  0.239293  0.124073  0.738762  1
  F  F244  1  0.257134  0.623335  0.231828  1
  F  F245  1  0.236095  0.623747  0.736288  1
  F  F246  1  0.734142  0.126985  0.753856  1
  F  F247  1  0.758198  0.627731  0.266092  1
  F  F248  1  0.728706  0.624866  0.758544  1
  F  F249  1  0.227962  0.374326  0.976361  1
  F  F250  1  0.226979  0.875776  0.991361  1
  F  F251  1  0.741306  0.375094  0.516262  1
  F  F252  1  0.735126  0.874305  0.511376  1
  F  F253  1  0.234315  0.875025  0.256838  1
  F  F254  1  0.736802  0.373360  0.231548  1
  F  F255  1  0.735026  0.876499  0.233761  1
  F  F256  1  0.769773  0.875651  0.741382  1

